[Format] = 4.0
[Frequency] = 0
[Precision] = 1e-08
[MinAngle] = 30
[DoSmartMesh] = 1
[Depth] = 1000
[LengthUnits] = millimeters
[ProblemType] = planar
[Coordinates] = cartesian
[ACSolver] = 0
[PrevType] = 0
[PrevSoln] = ""
[Comment] = "Automatically created with eadevices."
[PointProps] = 0
[BdryProps] = 2
  <BeginBdry>
    <BdryName> = "B_parallel"
    <BdryType> = 0
    <A_0> = 0
    <A_1> = 0
    <A_2> = 0
    <Phi> = 0
    <c0> = 0
    <c0i> = 0
    <c1> = 0
    <c1i> = 0
    <Mu_ssd> = 0
    <Sigma_ssd> = 0
    <innerangle> = 0
    <outerangle> = 0
  <EndBdry>
  <BeginBdry>
    <BdryName> = "B_perpendicular"
    <BdryType> = 2
    <A_0> = 0
    <A_1> = 0
    <A_2> = 0
    <Phi> = 0
    <c0> = 0
    <c0i> = 0
    <c1> = 0
    <c1i> = 0
    <Mu_ssd> = 0
    <Sigma_ssd> = 0
    <innerangle> = 0
    <outerangle> = 0
  <EndBdry>
[BlockProps] = 3
  <BeginBlock>
    <BlockName> = "Pure Iron"
    <Mu_x> = 14872
    <Mu_y> = 14872
    <H_c> = 0
    <H_cAngle> = 0
    <J_re> = 0
    <J_im> = 0
    <Sigma> = 10.44
    <d_lam> = 0
    <Phi_h> = 0
    <Phi_hx> = 0
    <Phi_hy> = 0
    <LamType> = 0
    <LamFill> = 1
    <NStrands> = 0
    <WireD> = 0
    <BHPoints> = 21
      0.0	0.0
      0.2271	13.8984
      0.4541	27.7967
      0.6812	42.3974
      0.9083	61.4157
      1.1353	82.3824
      1.3624	144.669
      1.5894	897.76
      1.8124	4581.74
      2.01	17736.2
      2.1332	41339.3
      2.2	68321.8
      2.2548	95685.5
      2.2999	123355.0
      2.3425	151083.0
      2.3788	178954.0
      2.415	206825.0
      2.4513	234696.0
      2.4875	262568.0
      2.5238	290439.0
      2.56	318310.0
  <EndBlock>
  <BeginBlock>
    <BlockName> = "Copper"
    <Mu_x> = 1
    <Mu_y> = 1
    <H_c> = 0
    <H_cAngle> = 0
    <J_re> = 0
    <J_im> = 0
    <Sigma> = 58
    <d_lam> = 0
    <Phi_h> = 0
    <Phi_hx> = 0
    <Phi_hy> = 0
    <LamType> = 0
    <LamFill> = 1
    <NStrands> = 0
    <WireD> = 0
    <BHPoints> = 0
  <EndBlock>
  <BeginBlock>
    <BlockName> = "Air"
    <Mu_x> = 1
    <Mu_y> = 1
    <H_c> = 0
    <H_cAngle> = 0
    <J_re> = 0
    <J_im> = 0
    <Sigma> = 0
    <d_lam> = 0
    <Phi_h> = 0
    <Phi_hx> = 0
    <Phi_hy> = 0
    <LamType> = 0
    <LamFill> = 1
    <NStrands> = 0
    <WireD> = 0
    <BHPoints> = 0
  <EndBlock>
[CircuitProps] = 1
  <BeginCircuit>
    <CircuitName> = Circuit_68528A_0A_1
    <TotalAmps_re> = 68528
    <TotalAmps_im> = 0
    <CircuitType> = 1
  <EndCircuit>
[NumPoints] = 121
335.2	51.7	0	0
351.9	207.0	0	0
652.2	207.0	0	0
652.2	0.0	0	0
1020.3	0.0	0	0
1020.3	575.2	0	0
0.0	575.2	0	0
0.0	51.7	0	0
33.5	51.7	0	0
67.0	51.7	0	0
100.6	51.7	0	0
134.1	51.7	0	0
167.6	51.7	0	0
201.1	51.7	0	0
234.6	51.7	0	0
268.1	51.7	0	0
301.7	51.7	0	0
351.9	56.9	0	0
652.2	56.9	0	0
0.0	747.5	0	0
1326.0	747.5	0	0
1326.0	0.0	0	0
389.70869387755107	0.0	0	0
381.6173877551021	0.0	0	0
373.52608163265313	0.0	0	0
365.43477551020413	0.0	0	0
357.34346938775514	0.0	0	0
349.2521632653062	0.0	0	0
341.1608571428572	0.0	0	0
333.0695510204082	0.0	0	0
324.97824489795926	0.0	0	0
316.88693877551026	0.0	0	0
308.79563265306126	0.0	0	0
300.70432653061226	0.0	0	0
292.6130204081633	0.0	0	0
284.5217142857143	0.0	0	0
276.4304081632653	0.0	0	0
268.3391020408164	0.0	0	0
260.2477959183674	0.0	0	0
252.1564897959184	0.0	0	0
244.0651836734694	0.0	0	0
235.97387755102042	0.0	0	0
227.88257142857142	0.0	0	0
219.79126530612245	0.0	0	0
211.69995918367349	0.0	0	0
203.6086530612245	0.0	0	0
195.51734693877552	0.0	0	0
187.42604081632655	0.0	0	0
179.33473469387755	0.0	0	0
171.24342857142858	0.0	0	0
163.1521224489796	0.0	0	0
155.0608163265306	0.0	0	0
146.96951020408164	0.0	0	0
138.87820408163265	0.0	0	0
130.78689795918368	0.0	0	0
122.69559183673469	0.0	0	0
114.60428571428571	0.0	0	0
106.51297959183674	0.0	0	0
98.42167346938776	0.0	0	0
90.33036734693877	0.0	0	0
82.2390612244898	0.0	0	0
74.14775510204082	0.0	0	0
66.05644897959183	0.0	0	0
57.96514285714286	0.0	0	0
49.87383673469388	0.0	0	0
41.782530612244905	0.0	0	0
33.69122448979592	0.0	0	0
25.59991836734694	0.0	0	0
17.50861224489796	0.0	0	0
9.41730612244898	0.0	0	0
1.326	0.0	0	0
0.0	0.0	0	0
0.0	0.7475	0	0
0.0	5.308775510204082	0	0
0.0	9.870051020408164	0	0
0.0	14.431326530612246	0	0
0.0	18.992602040816326	0	0
0.0	23.55387755102041	0	0
0.0	28.11515306122449	0	0
0.0	32.67642857142857	0	0
0.0	37.23770408163266	0	0
0.0	41.79897959183674	0	0
0.0	46.360255102040824	0	0
0.0	50.9215306122449	0	0
0.0	55.482806122448984	0	0
0.0	60.04408163265307	0	0
0.0	64.60535714285714	0	0
0.0	69.16663265306123	0	0
0.0	73.72790816326531	0	0
0.0	78.2891836734694	0	0
0.0	82.85045918367348	0	0
0.0	87.41173469387756	0	0
0.0	91.97301020408165	0	0
0.0	96.53428571428572	0	0
0.0	101.0955612244898	0	0
0.0	105.65683673469388	0	0
0.0	110.21811224489797	0	0
0.0	114.77938775510205	0	0
0.0	119.34066326530613	0	0
0.0	123.90193877551022	0	0
0.0	128.4632142857143	0	0
0.0	133.02448979591838	0	0
0.0	137.58576530612245	0	0
0.0	142.14704081632655	0	0
0.0	146.70831632653062	0	0
0.0	151.2695918367347	0	0
0.0	155.8308673469388	0	0
0.0	160.39214285714286	0	0
0.0	164.95341836734696	0	0
0.0	169.51469387755103	0	0
0.0	174.07596938775512	0	0
0.0	178.6372448979592	0	0
0.0	183.1985204081633	0	0
0.0	187.75979591836736	0	0
0.0	192.32107142857143	0	0
0.0	196.88234693877553	0	0
0.0	201.4436224489796	0	0
0.0	206.0048979591837	0	0
0.0	210.56617346938776	0	0
0.0	215.12744897959186	0	0
0.0	219.68872448979593	0	0
[NumSegments] = 124
0	1	-1	0	0	0
3	18	-1	0	0	0
4	5	-1	0	0	0
6	5	-1	0	0	0
7	8	-1	0	0	0
8	9	-1	0	0	0
9	10	-1	0	0	0
10	11	-1	0	0	0
11	12	-1	0	0	0
12	13	-1	0	0	0
13	14	-1	0	0	0
14	15	-1	0	0	0
15	16	-1	0	0	0
16	0	-1	0	0	0
17	18	-1	0	0	0
18	2	-1	0	0	0
1	2	-1	0	0	0
17	1	-1	0	0	0
19	20	-1	1	0	0
21	20	-1	1	0	0
71	70	-1	2	0	0
70	69	-1	2	0	0
69	68	-1	2	0	0
68	67	-1	2	0	0
67	66	-1	2	0	0
66	65	-1	2	0	0
65	64	-1	2	0	0
64	63	-1	2	0	0
63	62	-1	2	0	0
62	61	-1	2	0	0
61	60	-1	2	0	0
60	59	-1	2	0	0
59	58	-1	2	0	0
58	57	-1	2	0	0
57	56	-1	2	0	0
56	55	-1	2	0	0
55	54	-1	2	0	0
54	53	-1	2	0	0
53	52	-1	2	0	0
52	51	-1	2	0	0
51	50	-1	2	0	0
50	49	-1	2	0	0
49	48	-1	2	0	0
48	47	-1	2	0	0
47	46	-1	2	0	0
46	45	-1	2	0	0
45	44	-1	2	0	0
44	43	-1	2	0	0
43	42	-1	2	0	0
42	41	-1	2	0	0
41	40	-1	2	0	0
40	39	-1	2	0	0
39	38	-1	2	0	0
38	37	-1	2	0	0
37	36	-1	2	0	0
36	35	-1	2	0	0
35	34	-1	2	0	0
34	33	-1	2	0	0
33	32	-1	2	0	0
32	31	-1	2	0	0
31	30	-1	2	0	0
30	29	-1	2	0	0
29	28	-1	2	0	0
28	27	-1	2	0	0
27	26	-1	2	0	0
26	25	-1	2	0	0
25	24	-1	2	0	0
24	23	-1	2	0	0
23	22	-1	2	0	0
22	3	-1	2	0	0
3	4	-1	2	0	0
4	21	-1	2	0	0
71	72	-1	1	0	0
72	73	-1	1	0	0
73	74	-1	1	0	0
74	75	-1	1	0	0
75	76	-1	1	0	0
76	77	-1	1	0	0
77	78	-1	1	0	0
78	79	-1	1	0	0
79	80	-1	1	0	0
80	81	-1	1	0	0
81	82	-1	1	0	0
82	83	-1	1	0	0
83	7	-1	1	0	0
7	84	-1	1	0	0
84	85	-1	1	0	0
85	86	-1	1	0	0
86	87	-1	1	0	0
87	88	-1	1	0	0
88	89	-1	1	0	0
89	90	-1	1	0	0
90	91	-1	1	0	0
91	92	-1	1	0	0
92	93	-1	1	0	0
93	94	-1	1	0	0
94	95	-1	1	0	0
95	96	-1	1	0	0
96	97	-1	1	0	0
97	98	-1	1	0	0
98	99	-1	1	0	0
99	100	-1	1	0	0
100	101	-1	1	0	0
101	102	-1	1	0	0
102	103	-1	1	0	0
103	104	-1	1	0	0
104	105	-1	1	0	0
105	106	-1	1	0	0
106	107	-1	1	0	0
107	108	-1	1	0	0
108	109	-1	1	0	0
109	110	-1	1	0	0
110	111	-1	1	0	0
111	112	-1	1	0	0
112	113	-1	1	0	0
113	114	-1	1	0	0
114	115	-1	1	0	0
115	116	-1	1	0	0
116	117	-1	1	0	0
117	118	-1	1	0	0
118	119	-1	1	0	0
119	120	-1	1	0	0
120	6	-1	1	0	0
6	19	-1	1	0	0
[NumArcSegments] = 0
[NumHoles] = 0
[NumBlockLabels] = 3
335.19	51.705000000000005	1	-1	0	0	0	1	0
351.905	56.905	2	-1	1	0	0	1	0
0.005	747.49	3	-1	0	0	0	1	2
