[Format] = 4.0
[Frequency] = 0
[Precision] = 1e-08
[MinAngle] = 30
[DoSmartMesh] = 1
[Depth] = 1000
[LengthUnits] = millimeters
[ProblemType] = planar
[Coordinates] = cartesian
[ACSolver] = 0
[PrevType] = 0
[PrevSoln] = ""
[Comment] = "Automatically created with eadevices."
[PointProps] = 0
[BdryProps] = 2
  <BeginBdry>
    <BdryName> = "B_parallel"
    <BdryType> = 0
    <A_0> = 0
    <A_1> = 0
    <A_2> = 0
    <Phi> = 0
    <c0> = 0
    <c0i> = 0
    <c1> = 0
    <c1i> = 0
    <Mu_ssd> = 0
    <Sigma_ssd> = 0
    <innerangle> = 0
    <outerangle> = 0
  <EndBdry>
  <BeginBdry>
    <BdryName> = "B_perpendicular"
    <BdryType> = 2
    <A_0> = 0
    <A_1> = 0
    <A_2> = 0
    <Phi> = 0
    <c0> = 0
    <c0i> = 0
    <c1> = 0
    <c1i> = 0
    <Mu_ssd> = 0
    <Sigma_ssd> = 0
    <innerangle> = 0
    <outerangle> = 0
  <EndBdry>
[BlockProps] = 3
  <BeginBlock>
    <BlockName> = "Pure Iron"
    <Mu_x> = 14872
    <Mu_y> = 14872
    <H_c> = 0
    <H_cAngle> = 0
    <J_re> = 0
    <J_im> = 0
    <Sigma> = 10.44
    <d_lam> = 0
    <Phi_h> = 0
    <Phi_hx> = 0
    <Phi_hy> = 0
    <LamType> = 0
    <LamFill> = 1
    <NStrands> = 0
    <WireD> = 0
    <BHPoints> = 21
      0.0	0.0
      0.2271	13.8984
      0.4541	27.7967
      0.6812	42.3974
      0.9083	61.4157
      1.1353	82.3824
      1.3624	144.669
      1.5894	897.76
      1.8124	4581.74
      2.01	17736.2
      2.1332	41339.3
      2.2	68321.8
      2.2548	95685.5
      2.2999	123355.0
      2.3425	151083.0
      2.3788	178954.0
      2.415	206825.0
      2.4513	234696.0
      2.4875	262568.0
      2.5238	290439.0
      2.56	318310.0
  <EndBlock>
  <BeginBlock>
    <BlockName> = "Copper"
    <Mu_x> = 1
    <Mu_y> = 1
    <H_c> = 0
    <H_cAngle> = 0
    <J_re> = 0
    <J_im> = 0
    <Sigma> = 58
    <d_lam> = 0
    <Phi_h> = 0
    <Phi_hx> = 0
    <Phi_hy> = 0
    <LamType> = 0
    <LamFill> = 1
    <NStrands> = 0
    <WireD> = 0
    <BHPoints> = 0
  <EndBlock>
  <BeginBlock>
    <BlockName> = "Air"
    <Mu_x> = 1
    <Mu_y> = 1
    <H_c> = 0
    <H_cAngle> = 0
    <J_re> = 0
    <J_im> = 0
    <Sigma> = 0
    <d_lam> = 0
    <Phi_h> = 0
    <Phi_hx> = 0
    <Phi_hy> = 0
    <LamType> = 0
    <LamFill> = 1
    <NStrands> = 0
    <WireD> = 0
    <BHPoints> = 0
  <EndBlock>
[CircuitProps] = 1
  <BeginCircuit>
    <CircuitName> = Circuit_119175A_0A_1
    <TotalAmps_re> = 119175
    <TotalAmps_im> = 0
    <CircuitType> = 1
  <EndCircuit>
[NumPoints] = 121
282.2	79.9	0	0
296.3	209.7	0	0
539.8	209.7	0	0
539.8	0.0	0	0
1323.1	0.0	0	0
1323.1	993.0	0	0
0.0	993.0	0	0
0.0	79.9	0	0
28.2	79.9	0	0
56.4	79.9	0	0
84.7	79.9	0	0
112.9	79.9	0	0
141.1	79.9	0	0
169.3	79.9	0	0
197.5	79.9	0	0
225.8	79.9	0	0
254.0	79.9	0	0
296.3	87.9	0	0
539.8	87.9	0	0
0.0	1290.9	0	0
1719.9	1290.9	0	0
1719.9	0.0	0	0
505.47509999999994	0.0	0	0
494.98019999999997	0.0	0	0
484.4853	0.0	0	0
473.99039999999997	0.0	0	0
463.4955	0.0	0	0
453.00059999999996	0.0	0	0
442.5057	0.0	0	0
432.01079999999996	0.0	0	0
421.5159	0.0	0	0
411.02099999999996	0.0	0	0
400.5261	0.0	0	0
390.03119999999996	0.0	0	0
379.5363	0.0	0	0
369.04139999999995	0.0	0	0
358.5465	0.0	0	0
348.05159999999995	0.0	0	0
337.5567	0.0	0	0
327.0618	0.0	0	0
316.5669	0.0	0	0
306.072	0.0	0	0
295.5771	0.0	0	0
285.0822	0.0	0	0
274.58729999999997	0.0	0	0
264.0924	0.0	0	0
253.59749999999997	0.0	0	0
243.1026	0.0	0	0
232.6077	0.0	0	0
222.1128	0.0	0	0
211.6179	0.0	0	0
201.123	0.0	0	0
190.6281	0.0	0	0
180.1332	0.0	0	0
169.6383	0.0	0	0
159.14339999999999	0.0	0	0
148.64849999999998	0.0	0	0
138.15359999999998	0.0	0	0
127.65869999999998	0.0	0	0
117.1638	0.0	0	0
106.6689	0.0	0	0
96.17399999999999	0.0	0	0
85.67909999999999	0.0	0	0
75.18419999999999	0.0	0	0
64.68929999999999	0.0	0	0
54.1944	0.0	0	0
43.6995	0.0	0	0
33.2046	0.0	0	0
22.709699999999998	0.0	0	0
12.2148	0.0	0	0
1.7199000000000002	0.0	0	0
0.0	0.0	0	0
0.0	1.2909000000000002	0	0
0.0	9.168024489795918	0	0
0.0	17.045148979591836	0	0
0.0	24.922273469387758	0	0
0.0	32.79939795918367	0	0
0.0	40.6765224489796	0	0
0.0	48.553646938775515	0	0
0.0	56.43077142857143	0	0
0.0	64.30789591836735	0	0
0.0	72.18502040816327	0	0
0.0	80.06214489795919	0	0
0.0	87.9392693877551	0	0
0.0	95.81639387755102	0	0
0.0	103.69351836734694	0	0
0.0	111.57064285714286	0	0
0.0	119.44776734693878	0	0
0.0	127.3248918367347	0	0
0.0	135.2020163265306	0	0
0.0	143.07914081632654	0	0
0.0	150.95626530612245	0	0
0.0	158.83338979591838	0	0
0.0	166.71051428571428	0	0
0.0	174.58763877551021	0	0
0.0	182.46476326530612	0	0
0.0	190.34188775510205	0	0
0.0	198.21901224489795	0	0
0.0	206.09613673469389	0	0
0.0	213.9732612244898	0	0
0.0	221.85038571428572	0	0
0.0	229.72751020408163	0	0
0.0	237.60463469387756	0	0
0.0	245.48175918367346	0	0
0.0	253.3588836734694	0	0
0.0	261.23600816326535	0	0
0.0	269.11313265306126	0	0
0.0	276.99025714285716	0	0
0.0	284.8673816326531	0	0
0.0	292.744506122449	0	0
0.0	300.6216306122449	0	0
0.0	308.49875510204083	0	0
0.0	316.3758795918368	0	0
0.0	324.2530040816327	0	0
0.0	332.1301285714286	0	0
0.0	340.0072530612245	0	0
0.0	347.88437755102046	0	0
0.0	355.76150204081637	0	0
0.0	363.63862653061227	0	0
0.0	371.5157510204082	0	0
0.0	379.39287551020414	0	0
[NumSegments] = 124
0	1	-1	0	0	0
3	18	-1	0	0	0
4	5	-1	0	0	0
6	5	-1	0	0	0
7	8	-1	0	0	0
8	9	-1	0	0	0
9	10	-1	0	0	0
10	11	-1	0	0	0
11	12	-1	0	0	0
12	13	-1	0	0	0
13	14	-1	0	0	0
14	15	-1	0	0	0
15	16	-1	0	0	0
16	0	-1	0	0	0
17	18	-1	0	0	0
18	2	-1	0	0	0
1	2	-1	0	0	0
17	1	-1	0	0	0
19	20	-1	1	0	0
21	20	-1	1	0	0
71	70	-1	2	0	0
70	69	-1	2	0	0
69	68	-1	2	0	0
68	67	-1	2	0	0
67	66	-1	2	0	0
66	65	-1	2	0	0
65	64	-1	2	0	0
64	63	-1	2	0	0
63	62	-1	2	0	0
62	61	-1	2	0	0
61	60	-1	2	0	0
60	59	-1	2	0	0
59	58	-1	2	0	0
58	57	-1	2	0	0
57	56	-1	2	0	0
56	55	-1	2	0	0
55	54	-1	2	0	0
54	53	-1	2	0	0
53	52	-1	2	0	0
52	51	-1	2	0	0
51	50	-1	2	0	0
50	49	-1	2	0	0
49	48	-1	2	0	0
48	47	-1	2	0	0
47	46	-1	2	0	0
46	45	-1	2	0	0
45	44	-1	2	0	0
44	43	-1	2	0	0
43	42	-1	2	0	0
42	41	-1	2	0	0
41	40	-1	2	0	0
40	39	-1	2	0	0
39	38	-1	2	0	0
38	37	-1	2	0	0
37	36	-1	2	0	0
36	35	-1	2	0	0
35	34	-1	2	0	0
34	33	-1	2	0	0
33	32	-1	2	0	0
32	31	-1	2	0	0
31	30	-1	2	0	0
30	29	-1	2	0	0
29	28	-1	2	0	0
28	27	-1	2	0	0
27	26	-1	2	0	0
26	25	-1	2	0	0
25	24	-1	2	0	0
24	23	-1	2	0	0
23	22	-1	2	0	0
22	3	-1	2	0	0
3	4	-1	2	0	0
4	21	-1	2	0	0
71	72	-1	1	0	0
72	73	-1	1	0	0
73	74	-1	1	0	0
74	75	-1	1	0	0
75	76	-1	1	0	0
76	77	-1	1	0	0
77	78	-1	1	0	0
78	79	-1	1	0	0
79	80	-1	1	0	0
80	81	-1	1	0	0
81	7	-1	1	0	0
7	82	-1	1	0	0
82	83	-1	1	0	0
83	84	-1	1	0	0
84	85	-1	1	0	0
85	86	-1	1	0	0
86	87	-1	1	0	0
87	88	-1	1	0	0
88	89	-1	1	0	0
89	90	-1	1	0	0
90	91	-1	1	0	0
91	92	-1	1	0	0
92	93	-1	1	0	0
93	94	-1	1	0	0
94	95	-1	1	0	0
95	96	-1	1	0	0
96	97	-1	1	0	0
97	98	-1	1	0	0
98	99	-1	1	0	0
99	100	-1	1	0	0
100	101	-1	1	0	0
101	102	-1	1	0	0
102	103	-1	1	0	0
103	104	-1	1	0	0
104	105	-1	1	0	0
105	106	-1	1	0	0
106	107	-1	1	0	0
107	108	-1	1	0	0
108	109	-1	1	0	0
109	110	-1	1	0	0
110	111	-1	1	0	0
111	112	-1	1	0	0
112	113	-1	1	0	0
113	114	-1	1	0	0
114	115	-1	1	0	0
115	116	-1	1	0	0
116	117	-1	1	0	0
117	118	-1	1	0	0
118	119	-1	1	0	0
119	120	-1	1	0	0
120	6	-1	1	0	0
6	19	-1	1	0	0
[NumArcSegments] = 0
[NumHoles] = 0
[NumBlockLabels] = 3
282.19	79.905	1	-1	0	0	0	1	0
296.305	87.905	2	-1	1	0	0	1	0
0.005	1290.89	3	-1	0	0	0	1	2
