[Format] = 4.0
[Frequency] = 0
[Precision] = 1e-08
[MinAngle] = 30
[DoSmartMesh] = 1
[Depth] = 1000
[LengthUnits] = millimeters
[ProblemType] = planar
[Coordinates] = cartesian
[ACSolver] = 0
[PrevType] = 0
[PrevSoln] = ""
[Comment] = "Automatically created with eadevices."
[PointProps] = 0
[BdryProps] = 2
  <BeginBdry>
    <BdryName> = "B_parallel"
    <BdryType> = 0
    <A_0> = 0
    <A_1> = 0
    <A_2> = 0
    <Phi> = 0
    <c0> = 0
    <c0i> = 0
    <c1> = 0
    <c1i> = 0
    <Mu_ssd> = 0
    <Sigma_ssd> = 0
    <innerangle> = 0
    <outerangle> = 0
  <EndBdry>
  <BeginBdry>
    <BdryName> = "B_perpendicular"
    <BdryType> = 2
    <A_0> = 0
    <A_1> = 0
    <A_2> = 0
    <Phi> = 0
    <c0> = 0
    <c0i> = 0
    <c1> = 0
    <c1i> = 0
    <Mu_ssd> = 0
    <Sigma_ssd> = 0
    <innerangle> = 0
    <outerangle> = 0
  <EndBdry>
[BlockProps] = 3
  <BeginBlock>
    <BlockName> = "Pure Iron"
    <Mu_x> = 14872
    <Mu_y> = 14872
    <H_c> = 0
    <H_cAngle> = 0
    <J_re> = 0
    <J_im> = 0
    <Sigma> = 10.44
    <d_lam> = 0
    <Phi_h> = 0
    <Phi_hx> = 0
    <Phi_hy> = 0
    <LamType> = 0
    <LamFill> = 1
    <NStrands> = 0
    <WireD> = 0
    <BHPoints> = 21
      0.0	0.0
      0.2271	13.8984
      0.4541	27.7967
      0.6812	42.3974
      0.9083	61.4157
      1.1353	82.3824
      1.3624	144.669
      1.5894	897.76
      1.8124	4581.74
      2.01	17736.2
      2.1332	41339.3
      2.2	68321.8
      2.2548	95685.5
      2.2999	123355.0
      2.3425	151083.0
      2.3788	178954.0
      2.415	206825.0
      2.4513	234696.0
      2.4875	262568.0
      2.5238	290439.0
      2.56	318310.0
  <EndBlock>
  <BeginBlock>
    <BlockName> = "Copper"
    <Mu_x> = 1
    <Mu_y> = 1
    <H_c> = 0
    <H_cAngle> = 0
    <J_re> = 0
    <J_im> = 0
    <Sigma> = 58
    <d_lam> = 0
    <Phi_h> = 0
    <Phi_hx> = 0
    <Phi_hy> = 0
    <LamType> = 0
    <LamFill> = 1
    <NStrands> = 0
    <WireD> = 0
    <BHPoints> = 0
  <EndBlock>
  <BeginBlock>
    <BlockName> = "Air"
    <Mu_x> = 1
    <Mu_y> = 1
    <H_c> = 0
    <H_cAngle> = 0
    <J_re> = 0
    <J_im> = 0
    <Sigma> = 0
    <d_lam> = 0
    <Phi_h> = 0
    <Phi_hx> = 0
    <Phi_hy> = 0
    <LamType> = 0
    <LamFill> = 1
    <NStrands> = 0
    <WireD> = 0
    <BHPoints> = 0
  <EndBlock>
[CircuitProps] = 1
  <BeginCircuit>
    <CircuitName> = Circuit_130114A_0A_1
    <TotalAmps_re> = 130114
    <TotalAmps_im> = 0
    <CircuitType> = 1
  <EndCircuit>
[NumPoints] = 121
361.1	102.4	0	0
379.1	326.4	0	0
806.6	326.4	0	0
806.6	0.0	0	0
1307.0	0.0	0	0
1307.0	826.8	0	0
0.0	826.8	0	0
0.0	102.4	0	0
36.1	102.4	0	0
72.2	102.4	0	0
108.3	102.4	0	0
144.4	102.4	0	0
180.5	102.4	0	0
216.7	102.4	0	0
252.8	102.4	0	0
288.9	102.4	0	0
325.0	102.4	0	0
379.1	112.7	0	0
806.6	112.7	0	0
0.0	1075.1000000000001	0	0
1699.1000000000001	1075.1000000000001	0	0
1699.1000000000001	0.0	0	0
499.36202244897964	0.0	0	0
488.9940448979592	0.0	0	0
478.62606734693884	0.0	0	0
468.2580897959184	0.0	0	0
457.89011224489803	0.0	0	0
447.5221346938776	0.0	0	0
437.1541571428572	0.0	0	0
426.7861795918368	0.0	0	0
416.41820204081637	0.0	0	0
406.05022448979594	0.0	0	0
395.68224693877556	0.0	0	0
385.31426938775513	0.0	0	0
374.9462918367347	0.0	0	0
364.5783142857143	0.0	0	0
354.2103367346939	0.0	0	0
343.8423591836735	0.0	0	0
333.4743816326531	0.0	0	0
323.10640408163266	0.0	0	0
312.7384265306123	0.0	0	0
302.37044897959186	0.0	0	0
292.0024714285715	0.0	0	0
281.63449387755105	0.0	0	0
271.2665163265306	0.0	0	0
260.89853877551025	0.0	0	0
250.53056122448982	0.0	0	0
240.1625836734694	0.0	0	0
229.794606122449	0.0	0	0
219.42662857142858	0.0	0	0
209.05865102040818	0.0	0	0
198.69067346938778	0.0	0	0
188.32269591836734	0.0	0	0
177.95471836734694	0.0	0	0
167.58674081632654	0.0	0	0
157.21876326530614	0.0	0	0
146.85078571428573	0.0	0	0
136.4828081632653	0.0	0	0
126.11483061224492	0.0	0	0
115.74685306122451	0.0	0	0
105.3788755102041	0.0	0	0
95.01089795918368	0.0	0	0
84.64292040816328	0.0	0	0
74.27494285714288	0.0	0	0
63.90696530612246	0.0	0	0
53.53898775510205	0.0	0	0
43.17101020408164	0.0	0	0
32.80303265306123	0.0	0	0
22.43505510204082	0.0	0	0
12.06707755102041	0.0	0	0
1.6991000000000003	0.0	0	0
0.0	0.0	0	0
0.0	1.0751000000000002	0	0
0.0	7.635404081632653	0	0
0.0	14.195708163265307	0	0
0.0	20.75601224489796	0	0
0.0	27.31631632653061	0	0
0.0	33.87662040816326	0	0
0.0	40.43692448979592	0	0
0.0	46.99722857142857	0	0
0.0	53.55753265306122	0	0
0.0	60.117836734693874	0	0
0.0	66.67814081632653	0	0
0.0	73.23844489795918	0	0
0.0	79.79874897959185	0	0
0.0	86.3590530612245	0	0
0.0	92.91935714285715	0	0
0.0	99.4796612244898	0	0
0.0	106.03996530612245	0	0
0.0	112.6002693877551	0	0
0.0	119.16057346938776	0	0
0.0	125.72087755102041	0	0
0.0	132.28118163265304	0	0
0.0	138.8414857142857	0	0
0.0	145.40178979591835	0	0
0.0	151.962093877551	0	0
0.0	158.52239795918368	0	0
0.0	165.08270204081632	0	0
0.0	171.64300612244898	0	0
0.0	178.20331020408162	0	0
0.0	184.76361428571428	0	0
0.0	191.32391836734692	0	0
0.0	197.88422244897959	0	0
0.0	204.44452653061222	0	0
0.0	211.0048306122449	0	0
0.0	217.56513469387755	0	0
0.0	224.1254387755102	0	0
0.0	230.68574285714286	0	0
0.0	237.2460469387755	0	0
0.0	243.80635102040816	0	0
0.0	250.3666551020408	0	0
0.0	256.9269591836735	0	0
0.0	263.4872632653061	0	0
0.0	270.0475673469388	0	0
0.0	276.60787142857146	0	0
0.0	283.1681755102041	0	0
0.0	289.72847959183673	0	0
0.0	296.2887836734694	0	0
0.0	302.84908775510206	0	0
0.0	309.4093918367347	0	0
0.0	315.9696959183674	0	0
[NumSegments] = 124
0	1	-1	0	0	0
3	18	-1	0	0	0
4	5	-1	0	0	0
6	5	-1	0	0	0
7	8	-1	0	0	0
8	9	-1	0	0	0
9	10	-1	0	0	0
10	11	-1	0	0	0
11	12	-1	0	0	0
12	13	-1	0	0	0
13	14	-1	0	0	0
14	15	-1	0	0	0
15	16	-1	0	0	0
16	0	-1	0	0	0
17	18	-1	0	0	0
18	2	-1	0	0	0
1	2	-1	0	0	0
17	1	-1	0	0	0
19	20	-1	1	0	0
21	20	-1	1	0	0
71	70	-1	2	0	0
70	69	-1	2	0	0
69	68	-1	2	0	0
68	67	-1	2	0	0
67	66	-1	2	0	0
66	65	-1	2	0	0
65	64	-1	2	0	0
64	63	-1	2	0	0
63	62	-1	2	0	0
62	61	-1	2	0	0
61	60	-1	2	0	0
60	59	-1	2	0	0
59	58	-1	2	0	0
58	57	-1	2	0	0
57	56	-1	2	0	0
56	55	-1	2	0	0
55	54	-1	2	0	0
54	53	-1	2	0	0
53	52	-1	2	0	0
52	51	-1	2	0	0
51	50	-1	2	0	0
50	49	-1	2	0	0
49	48	-1	2	0	0
48	47	-1	2	0	0
47	46	-1	2	0	0
46	45	-1	2	0	0
45	44	-1	2	0	0
44	43	-1	2	0	0
43	42	-1	2	0	0
42	41	-1	2	0	0
41	40	-1	2	0	0
40	39	-1	2	0	0
39	38	-1	2	0	0
38	37	-1	2	0	0
37	36	-1	2	0	0
36	35	-1	2	0	0
35	34	-1	2	0	0
34	33	-1	2	0	0
33	32	-1	2	0	0
32	31	-1	2	0	0
31	30	-1	2	0	0
30	29	-1	2	0	0
29	28	-1	2	0	0
28	27	-1	2	0	0
27	26	-1	2	0	0
26	25	-1	2	0	0
25	24	-1	2	0	0
24	23	-1	2	0	0
23	22	-1	2	0	0
22	3	-1	2	0	0
3	4	-1	2	0	0
4	21	-1	2	0	0
71	72	-1	1	0	0
72	73	-1	1	0	0
73	74	-1	1	0	0
74	75	-1	1	0	0
75	76	-1	1	0	0
76	77	-1	1	0	0
77	78	-1	1	0	0
78	79	-1	1	0	0
79	80	-1	1	0	0
80	81	-1	1	0	0
81	82	-1	1	0	0
82	83	-1	1	0	0
83	84	-1	1	0	0
84	85	-1	1	0	0
85	86	-1	1	0	0
86	87	-1	1	0	0
87	7	-1	1	0	0
7	88	-1	1	0	0
88	89	-1	1	0	0
89	90	-1	1	0	0
90	91	-1	1	0	0
91	92	-1	1	0	0
92	93	-1	1	0	0
93	94	-1	1	0	0
94	95	-1	1	0	0
95	96	-1	1	0	0
96	97	-1	1	0	0
97	98	-1	1	0	0
98	99	-1	1	0	0
99	100	-1	1	0	0
100	101	-1	1	0	0
101	102	-1	1	0	0
102	103	-1	1	0	0
103	104	-1	1	0	0
104	105	-1	1	0	0
105	106	-1	1	0	0
106	107	-1	1	0	0
107	108	-1	1	0	0
108	109	-1	1	0	0
109	110	-1	1	0	0
110	111	-1	1	0	0
111	112	-1	1	0	0
112	113	-1	1	0	0
113	114	-1	1	0	0
114	115	-1	1	0	0
115	116	-1	1	0	0
116	117	-1	1	0	0
117	118	-1	1	0	0
118	119	-1	1	0	0
119	120	-1	1	0	0
120	6	-1	1	0	0
6	19	-1	1	0	0
[NumArcSegments] = 0
[NumHoles] = 0
[NumBlockLabels] = 3
361.09000000000003	102.405	1	-1	0	0	0	1	0
379.105	112.705	2	-1	1	0	0	1	0
0.005	1075.0900000000001	3	-1	0	0	0	1	2
