[Format] = 4.0
[Frequency] = 0
[Precision] = 1e-08
[MinAngle] = 30
[DoSmartMesh] = 1
[Depth] = 1000
[LengthUnits] = millimeters
[ProblemType] = planar
[Coordinates] = cartesian
[ACSolver] = 0
[PrevType] = 0
[PrevSoln] = ""
[Comment] = "Automatically created with eadevices."
[PointProps] = 0
[BdryProps] = 2
  <BeginBdry>
    <BdryName> = "B_parallel"
    <BdryType> = 0
    <A_0> = 0
    <A_1> = 0
    <A_2> = 0
    <Phi> = 0
    <c0> = 0
    <c0i> = 0
    <c1> = 0
    <c1i> = 0
    <Mu_ssd> = 0
    <Sigma_ssd> = 0
    <innerangle> = 0
    <outerangle> = 0
  <EndBdry>
  <BeginBdry>
    <BdryName> = "B_perpendicular"
    <BdryType> = 2
    <A_0> = 0
    <A_1> = 0
    <A_2> = 0
    <Phi> = 0
    <c0> = 0
    <c0i> = 0
    <c1> = 0
    <c1i> = 0
    <Mu_ssd> = 0
    <Sigma_ssd> = 0
    <innerangle> = 0
    <outerangle> = 0
  <EndBdry>
[BlockProps] = 3
  <BeginBlock>
    <BlockName> = "Pure Iron"
    <Mu_x> = 14872
    <Mu_y> = 14872
    <H_c> = 0
    <H_cAngle> = 0
    <J_re> = 0
    <J_im> = 0
    <Sigma> = 10.44
    <d_lam> = 0
    <Phi_h> = 0
    <Phi_hx> = 0
    <Phi_hy> = 0
    <LamType> = 0
    <LamFill> = 1
    <NStrands> = 0
    <WireD> = 0
    <BHPoints> = 21
      0.0	0.0
      0.2271	13.8984
      0.4541	27.7967
      0.6812	42.3974
      0.9083	61.4157
      1.1353	82.3824
      1.3624	144.669
      1.5894	897.76
      1.8124	4581.74
      2.01	17736.2
      2.1332	41339.3
      2.2	68321.8
      2.2548	95685.5
      2.2999	123355.0
      2.3425	151083.0
      2.3788	178954.0
      2.415	206825.0
      2.4513	234696.0
      2.4875	262568.0
      2.5238	290439.0
      2.56	318310.0
  <EndBlock>
  <BeginBlock>
    <BlockName> = "Copper"
    <Mu_x> = 1
    <Mu_y> = 1
    <H_c> = 0
    <H_cAngle> = 0
    <J_re> = 0
    <J_im> = 0
    <Sigma> = 58
    <d_lam> = 0
    <Phi_h> = 0
    <Phi_hx> = 0
    <Phi_hy> = 0
    <LamType> = 0
    <LamFill> = 1
    <NStrands> = 0
    <WireD> = 0
    <BHPoints> = 0
  <EndBlock>
  <BeginBlock>
    <BlockName> = "Air"
    <Mu_x> = 1
    <Mu_y> = 1
    <H_c> = 0
    <H_cAngle> = 0
    <J_re> = 0
    <J_im> = 0
    <Sigma> = 0
    <d_lam> = 0
    <Phi_h> = 0
    <Phi_hx> = 0
    <Phi_hy> = 0
    <LamType> = 0
    <LamFill> = 1
    <NStrands> = 0
    <WireD> = 0
    <BHPoints> = 0
  <EndBlock>
[CircuitProps] = 1
  <BeginCircuit>
    <CircuitName> = Circuit_36585A_0A_1
    <TotalAmps_re> = 36585
    <TotalAmps_im> = 0
    <CircuitType> = 1
  <EndCircuit>
[NumPoints] = 113
0.0	49.6	0	0
104.1	49.6	0	0
212.2	49.6	0	0
232.4	191.2	0	0
439.3	191.2	0	0
439.3	0.0	0	0
647.4	0.0	0	0
647.4	399.4	0	0
0.0	399.4	0	0
232.4	149.6	0	0
439.3	149.6	0	0
0.0	518.7	0	0
841.1	518.7	0	0
841.1	0.0	0	0
247.19757346938775	0.0	0	0
242.0651469387755	0.0	0	0
236.93272040816325	0.0	0	0
231.800293877551	0.0	0	0
226.66786734693878	0.0	0	0
221.5354408163265	0.0	0	0
216.40301428571428	0.0	0	0
211.27058775510204	0.0	0	0
206.13816122448978	0.0	0	0
201.00573469387754	0.0	0	0
195.8733081632653	0.0	0	0
190.74088163265307	0.0	0	0
185.6084551020408	0.0	0	0
180.47602857142857	0.0	0	0
175.34360204081634	0.0	0	0
170.21117551020407	0.0	0	0
165.07874897959184	0.0	0	0
159.9463224489796	0.0	0	0
154.81389591836734	0.0	0	0
149.6814693877551	0.0	0	0
144.54904285714287	0.0	0	0
139.4166163265306	0.0	0	0
134.28418979591837	0.0	0	0
129.15176326530613	0.0	0	0
124.01933673469387	0.0	0	0
118.88691020408162	0.0	0	0
113.75448367346938	0.0	0	0
108.62205714285713	0.0	0	0
103.48963061224488	0.0	0	0
98.35720408163264	0.0	0	0
93.2247775510204	0.0	0	0
88.09235102040816	0.0	0	0
82.95992448979591	0.0	0	0
77.82749795918366	0.0	0	0
72.69507142857142	0.0	0	0
67.56264489795917	0.0	0	0
62.43021836734693	0.0	0	0
57.29779183673469	0.0	0	0
52.16536530612244	0.0	0	0
47.032938775510196	0.0	0	0
41.90051224489795	0.0	0	0
36.76808571428571	0.0	0	0
31.635659183673468	0.0	0	0
26.50323265306122	0.0	0	0
21.37080612244898	0.0	0	0
16.238379591836733	0.0	0	0
11.10595306122449	0.0	0	0
5.9735265306122445	0.0	0	0
0.8411000000000001	0.0	0	0
0.0	0.0	0	0
0.0	0.5187	0	0
0.0	3.6838285714285717	0	0
0.0	6.848957142857143	0	0
0.0	10.014085714285716	0	0
0.0	13.179214285714288	0	0
0.0	16.34434285714286	0	0
0.0	19.50947142857143	0	0
0.0	22.6746	0	0
0.0	25.839728571428573	0	0
0.0	29.004857142857144	0	0
0.0	32.169985714285716	0	0
0.0	35.33511428571429	0	0
0.0	38.500242857142865	0	0
0.0	41.66537142857143	0	0
0.0	44.83050000000001	0	0
0.0	47.995628571428576	0	0
0.0	51.16075714285715	0	0
0.0	54.325885714285725	0	0
0.0	57.49101428571429	0	0
0.0	60.65614285714287	0	0
0.0	63.821271428571436	0	0
0.0	66.9864	0	0
0.0	70.15152857142857	0	0
0.0	73.31665714285714	0	0
0.0	76.48178571428572	0	0
0.0	79.64691428571429	0	0
0.0	82.81204285714286	0	0
0.0	85.97717142857144	0	0
0.0	89.1423	0	0
0.0	92.30742857142857	0	0
0.0	95.47255714285714	0	0
0.0	98.63768571428572	0	0
0.0	101.80281428571429	0	0
0.0	104.96794285714286	0	0
0.0	108.13307142857144	0	0
0.0	111.29820000000001	0	0
0.0	114.46332857142858	0	0
0.0	117.62845714285714	0	0
0.0	120.79358571428573	0	0
0.0	123.9587142857143	0	0
0.0	127.12384285714286	0	0
0.0	130.28897142857144	0	0
0.0	133.4541	0	0
0.0	136.61922857142858	0	0
0.0	139.78435714285715	0	0
0.0	142.94948571428571	0	0
0.0	146.11461428571428	0	0
0.0	149.27974285714288	0	0
0.0	152.44487142857145	0	0
[NumSegments] = 116
0	1	-1	0	0	0
1	2	-1	0	0	0
2	3	-1	0	0	0
5	10	-1	0	0	0
6	7	-1	0	0	0
8	7	-1	0	0	0
9	10	-1	0	0	0
10	4	-1	0	0	0
3	4	-1	0	0	0
9	3	-1	0	0	0
11	12	-1	1	0	0
13	12	-1	1	0	0
63	62	-1	2	0	0
62	61	-1	2	0	0
61	60	-1	2	0	0
60	59	-1	2	0	0
59	58	-1	2	0	0
58	57	-1	2	0	0
57	56	-1	2	0	0
56	55	-1	2	0	0
55	54	-1	2	0	0
54	53	-1	2	0	0
53	52	-1	2	0	0
52	51	-1	2	0	0
51	50	-1	2	0	0
50	49	-1	2	0	0
49	48	-1	2	0	0
48	47	-1	2	0	0
47	46	-1	2	0	0
46	45	-1	2	0	0
45	44	-1	2	0	0
44	43	-1	2	0	0
43	42	-1	2	0	0
42	41	-1	2	0	0
41	40	-1	2	0	0
40	39	-1	2	0	0
39	38	-1	2	0	0
38	37	-1	2	0	0
37	36	-1	2	0	0
36	35	-1	2	0	0
35	34	-1	2	0	0
34	33	-1	2	0	0
33	32	-1	2	0	0
32	31	-1	2	0	0
31	30	-1	2	0	0
30	29	-1	2	0	0
29	28	-1	2	0	0
28	27	-1	2	0	0
27	26	-1	2	0	0
26	25	-1	2	0	0
25	24	-1	2	0	0
24	23	-1	2	0	0
23	22	-1	2	0	0
22	21	-1	2	0	0
21	20	-1	2	0	0
20	19	-1	2	0	0
19	18	-1	2	0	0
18	17	-1	2	0	0
17	16	-1	2	0	0
16	15	-1	2	0	0
15	14	-1	2	0	0
14	5	-1	2	0	0
5	6	-1	2	0	0
6	13	-1	2	0	0
63	64	-1	1	0	0
64	65	-1	1	0	0
65	66	-1	1	0	0
66	67	-1	1	0	0
67	68	-1	1	0	0
68	69	-1	1	0	0
69	70	-1	1	0	0
70	71	-1	1	0	0
71	72	-1	1	0	0
72	73	-1	1	0	0
73	74	-1	1	0	0
74	75	-1	1	0	0
75	76	-1	1	0	0
76	77	-1	1	0	0
77	78	-1	1	0	0
78	79	-1	1	0	0
79	0	-1	1	0	0
0	80	-1	1	0	0
80	81	-1	1	0	0
81	82	-1	1	0	0
82	83	-1	1	0	0
83	84	-1	1	0	0
84	85	-1	1	0	0
85	86	-1	1	0	0
86	87	-1	1	0	0
87	88	-1	1	0	0
88	89	-1	1	0	0
89	90	-1	1	0	0
90	91	-1	1	0	0
91	92	-1	1	0	0
92	93	-1	1	0	0
93	94	-1	1	0	0
94	95	-1	1	0	0
95	96	-1	1	0	0
96	97	-1	1	0	0
97	98	-1	1	0	0
98	99	-1	1	0	0
99	100	-1	1	0	0
100	101	-1	1	0	0
101	102	-1	1	0	0
102	103	-1	1	0	0
103	104	-1	1	0	0
104	105	-1	1	0	0
105	106	-1	1	0	0
106	107	-1	1	0	0
107	108	-1	1	0	0
108	109	-1	1	0	0
109	110	-1	1	0	0
110	111	-1	1	0	0
111	112	-1	1	0	0
112	8	-1	1	0	0
8	11	-1	1	0	0
[NumArcSegments] = 0
[NumHoles] = 0
[NumBlockLabels] = 3
0.005	49.605000000000004	1	-1	0	0	0	1	0
232.405	149.605	2	-1	1	0	0	1	0
0.005	518.69	3	-1	0	0	0	1	2
