[Format] = 4.0
[Frequency] = 0
[Precision] = 1e-08
[MinAngle] = 30
[DoSmartMesh] = 1
[Depth] = 1000
[LengthUnits] = millimeters
[ProblemType] = planar
[Coordinates] = cartesian
[ACSolver] = 0
[PrevType] = 0
[PrevSoln] = ""
[Comment] = "Automatically created with eadevices."
[PointProps] = 0
[BdryProps] = 2
  <BeginBdry>
    <BdryName> = "B_parallel"
    <BdryType> = 0
    <A_0> = 0
    <A_1> = 0
    <A_2> = 0
    <Phi> = 0
    <c0> = 0
    <c0i> = 0
    <c1> = 0
    <c1i> = 0
    <Mu_ssd> = 0
    <Sigma_ssd> = 0
    <innerangle> = 0
    <outerangle> = 0
  <EndBdry>
  <BeginBdry>
    <BdryName> = "B_perpendicular"
    <BdryType> = 2
    <A_0> = 0
    <A_1> = 0
    <A_2> = 0
    <Phi> = 0
    <c0> = 0
    <c0i> = 0
    <c1> = 0
    <c1i> = 0
    <Mu_ssd> = 0
    <Sigma_ssd> = 0
    <innerangle> = 0
    <outerangle> = 0
  <EndBdry>
[BlockProps] = 3
  <BeginBlock>
    <BlockName> = "Pure Iron"
    <Mu_x> = 14872
    <Mu_y> = 14872
    <H_c> = 0
    <H_cAngle> = 0
    <J_re> = 0
    <J_im> = 0
    <Sigma> = 10.44
    <d_lam> = 0
    <Phi_h> = 0
    <Phi_hx> = 0
    <Phi_hy> = 0
    <LamType> = 0
    <LamFill> = 1
    <NStrands> = 0
    <WireD> = 0
    <BHPoints> = 21
      0.0	0.0
      0.2271	13.8984
      0.4541	27.7967
      0.6812	42.3974
      0.9083	61.4157
      1.1353	82.3824
      1.3624	144.669
      1.5894	897.76
      1.8124	4581.74
      2.01	17736.2
      2.1332	41339.3
      2.2	68321.8
      2.2548	95685.5
      2.2999	123355.0
      2.3425	151083.0
      2.3788	178954.0
      2.415	206825.0
      2.4513	234696.0
      2.4875	262568.0
      2.5238	290439.0
      2.56	318310.0
  <EndBlock>
  <BeginBlock>
    <BlockName> = "Copper"
    <Mu_x> = 1
    <Mu_y> = 1
    <H_c> = 0
    <H_cAngle> = 0
    <J_re> = 0
    <J_im> = 0
    <Sigma> = 58
    <d_lam> = 0
    <Phi_h> = 0
    <Phi_hx> = 0
    <Phi_hy> = 0
    <LamType> = 0
    <LamFill> = 1
    <NStrands> = 0
    <WireD> = 0
    <BHPoints> = 0
  <EndBlock>
  <BeginBlock>
    <BlockName> = "Air"
    <Mu_x> = 1
    <Mu_y> = 1
    <H_c> = 0
    <H_cAngle> = 0
    <J_re> = 0
    <J_im> = 0
    <Sigma> = 0
    <d_lam> = 0
    <Phi_h> = 0
    <Phi_hx> = 0
    <Phi_hy> = 0
    <LamType> = 0
    <LamFill> = 1
    <NStrands> = 0
    <WireD> = 0
    <BHPoints> = 0
  <EndBlock>
[CircuitProps] = 1
  <BeginCircuit>
    <CircuitName> = Circuit_73532A_0A_1
    <TotalAmps_re> = 73532
    <TotalAmps_im> = 0
    <CircuitType> = 1
  <EndCircuit>
[NumPoints] = 121
254.1	47.8	0	0
266.8	126.4	0	0
414.4	126.4	0	0
414.4	0.0	0	0
1056.9	0.0	0	0
1056.9	768.8	0	0
0.0	768.8	0	0
0.0	47.8	0	0
25.4	47.8	0	0
50.8	47.8	0	0
76.2	47.8	0	0
101.6	47.8	0	0
127.0	47.8	0	0
152.4	47.8	0	0
177.9	47.8	0	0
203.3	47.8	0	0
228.7	47.8	0	0
266.8	52.5	0	0
414.4	52.5	0	0
0.0	999.7	0	0
1374.1000000000001	999.7	0	0
1374.1000000000001	0.0	0	0
403.8451857142858	0.0	0	0
395.4603714285715	0.0	0	0
387.0755571428572	0.0	0	0
378.6907428571429	0.0	0	0
370.3059285714286	0.0	0	0
361.92111428571434	0.0	0	0
353.53630000000004	0.0	0	0
345.15148571428574	0.0	0	0
336.76667142857144	0.0	0	0
328.38185714285714	0.0	0	0
319.9970428571429	0.0	0	0
311.6122285714286	0.0	0	0
303.2274142857143	0.0	0	0
294.8426	0.0	0	0
286.45778571428576	0.0	0	0
278.07297142857146	0.0	0	0
269.68815714285716	0.0	0	0
261.30334285714287	0.0	0	0
252.9185285714286	0.0	0	0
244.5337142857143	0.0	0	0
236.14890000000003	0.0	0	0
227.76408571428573	0.0	0	0
219.37927142857146	0.0	0	0
210.99445714285716	0.0	0	0
202.6096428571429	0.0	0	0
194.2248285714286	0.0	0	0
185.8400142857143	0.0	0	0
177.45520000000002	0.0	0	0
169.07038571428572	0.0	0	0
160.68557142857145	0.0	0	0
152.30075714285715	0.0	0	0
143.91594285714288	0.0	0	0
135.53112857142858	0.0	0	0
127.1463142857143	0.0	0	0
118.76150000000001	0.0	0	0
110.37668571428573	0.0	0	0
101.99187142857144	0.0	0	0
93.60705714285714	0.0	0	0
85.22224285714286	0.0	0	0
76.83742857142857	0.0	0	0
68.45261428571429	0.0	0	0
60.067800000000005	0.0	0	0
51.68298571428572	0.0	0	0
43.29817142857143	0.0	0	0
34.913357142857144	0.0	0	0
26.52854285714286	0.0	0	0
18.14372857142857	0.0	0	0
9.758914285714287	0.0	0	0
1.3741	0.0	0	0
0.0	0.0	0	0
0.0	0.9997	0	0
0.0	7.099910204081633	0	0
0.0	13.200120408163267	0	0
0.0	19.3003306122449	0	0
0.0	25.400540816326533	0	0
0.0	31.500751020408167	0	0
0.0	37.600961224489794	0	0
0.0	43.70117142857143	0	0
0.0	49.80138163265306	0	0
0.0	55.901591836734696	0	0
0.0	62.00180204081633	0	0
0.0	68.10201224489796	0	0
0.0	74.2022224489796	0	0
0.0	80.30243265306123	0	0
0.0	86.40264285714287	0	0
0.0	92.5028530612245	0	0
0.0	98.60306326530613	0	0
0.0	104.70327346938777	0	0
0.0	110.8034836734694	0	0
0.0	116.90369387755104	0	0
0.0	123.00390408163267	0	0
0.0	129.10411428571427	0	0
0.0	135.2043244897959	0	0
0.0	141.30453469387754	0	0
0.0	147.40474489795918	0	0
0.0	153.5049551020408	0	0
0.0	159.60516530612244	0	0
0.0	165.70537551020408	0	0
0.0	171.8055857142857	0	0
0.0	177.90579591836735	0	0
0.0	184.00600612244898	0	0
0.0	190.1062163265306	0	0
0.0	196.20642653061225	0	0
0.0	202.30663673469388	0	0
0.0	208.40684693877552	0	0
0.0	214.50705714285715	0	0
0.0	220.60726734693878	0	0
0.0	226.70747755102042	0	0
0.0	232.80768775510205	0	0
0.0	238.90789795918369	0	0
0.0	245.00810816326532	0	0
0.0	251.10831836734695	0	0
0.0	257.2085285714286	0	0
0.0	263.3087387755102	0	0
0.0	269.40894897959186	0	0
0.0	275.5091591836735	0	0
0.0	281.6093693877551	0	0
0.0	287.70957959183676	0	0
0.0	293.8097897959184	0	0
[NumSegments] = 124
0	1	-1	0	0	0
3	18	-1	0	0	0
4	5	-1	0	0	0
6	5	-1	0	0	0
7	8	-1	0	0	0
8	9	-1	0	0	0
9	10	-1	0	0	0
10	11	-1	0	0	0
11	12	-1	0	0	0
12	13	-1	0	0	0
13	14	-1	0	0	0
14	15	-1	0	0	0
15	16	-1	0	0	0
16	0	-1	0	0	0
17	18	-1	0	0	0
18	2	-1	0	0	0
1	2	-1	0	0	0
17	1	-1	0	0	0
19	20	-1	1	0	0
21	20	-1	1	0	0
71	70	-1	2	0	0
70	69	-1	2	0	0
69	68	-1	2	0	0
68	67	-1	2	0	0
67	66	-1	2	0	0
66	65	-1	2	0	0
65	64	-1	2	0	0
64	63	-1	2	0	0
63	62	-1	2	0	0
62	61	-1	2	0	0
61	60	-1	2	0	0
60	59	-1	2	0	0
59	58	-1	2	0	0
58	57	-1	2	0	0
57	56	-1	2	0	0
56	55	-1	2	0	0
55	54	-1	2	0	0
54	53	-1	2	0	0
53	52	-1	2	0	0
52	51	-1	2	0	0
51	50	-1	2	0	0
50	49	-1	2	0	0
49	48	-1	2	0	0
48	47	-1	2	0	0
47	46	-1	2	0	0
46	45	-1	2	0	0
45	44	-1	2	0	0
44	43	-1	2	0	0
43	42	-1	2	0	0
42	41	-1	2	0	0
41	40	-1	2	0	0
40	39	-1	2	0	0
39	38	-1	2	0	0
38	37	-1	2	0	0
37	36	-1	2	0	0
36	35	-1	2	0	0
35	34	-1	2	0	0
34	33	-1	2	0	0
33	32	-1	2	0	0
32	31	-1	2	0	0
31	30	-1	2	0	0
30	29	-1	2	0	0
29	28	-1	2	0	0
28	27	-1	2	0	0
27	26	-1	2	0	0
26	25	-1	2	0	0
25	24	-1	2	0	0
24	23	-1	2	0	0
23	22	-1	2	0	0
22	3	-1	2	0	0
3	4	-1	2	0	0
4	21	-1	2	0	0
71	72	-1	1	0	0
72	73	-1	1	0	0
73	74	-1	1	0	0
74	75	-1	1	0	0
75	76	-1	1	0	0
76	77	-1	1	0	0
77	78	-1	1	0	0
78	79	-1	1	0	0
79	7	-1	1	0	0
7	80	-1	1	0	0
80	81	-1	1	0	0
81	82	-1	1	0	0
82	83	-1	1	0	0
83	84	-1	1	0	0
84	85	-1	1	0	0
85	86	-1	1	0	0
86	87	-1	1	0	0
87	88	-1	1	0	0
88	89	-1	1	0	0
89	90	-1	1	0	0
90	91	-1	1	0	0
91	92	-1	1	0	0
92	93	-1	1	0	0
93	94	-1	1	0	0
94	95	-1	1	0	0
95	96	-1	1	0	0
96	97	-1	1	0	0
97	98	-1	1	0	0
98	99	-1	1	0	0
99	100	-1	1	0	0
100	101	-1	1	0	0
101	102	-1	1	0	0
102	103	-1	1	0	0
103	104	-1	1	0	0
104	105	-1	1	0	0
105	106	-1	1	0	0
106	107	-1	1	0	0
107	108	-1	1	0	0
108	109	-1	1	0	0
109	110	-1	1	0	0
110	111	-1	1	0	0
111	112	-1	1	0	0
112	113	-1	1	0	0
113	114	-1	1	0	0
114	115	-1	1	0	0
115	116	-1	1	0	0
116	117	-1	1	0	0
117	118	-1	1	0	0
118	119	-1	1	0	0
119	120	-1	1	0	0
120	6	-1	1	0	0
6	19	-1	1	0	0
[NumArcSegments] = 0
[NumHoles] = 0
[NumBlockLabels] = 3
254.09	47.805	1	-1	0	0	0	1	0
266.805	52.505	2	-1	1	0	0	1	0
0.005	999.69	3	-1	0	0	0	1	2
