[Format] = 4.0
[Frequency] = 0
[Precision] = 1e-08
[MinAngle] = 30
[DoSmartMesh] = 1
[Depth] = 1000
[LengthUnits] = millimeters
[ProblemType] = planar
[Coordinates] = cartesian
[ACSolver] = 0
[PrevType] = 0
[PrevSoln] = ""
[Comment] = "Automatically created with eadevices."
[PointProps] = 0
[BdryProps] = 2
  <BeginBdry>
    <BdryName> = "B_parallel"
    <BdryType> = 0
    <A_0> = 0
    <A_1> = 0
    <A_2> = 0
    <Phi> = 0
    <c0> = 0
    <c0i> = 0
    <c1> = 0
    <c1i> = 0
    <Mu_ssd> = 0
    <Sigma_ssd> = 0
    <innerangle> = 0
    <outerangle> = 0
  <EndBdry>
  <BeginBdry>
    <BdryName> = "B_perpendicular"
    <BdryType> = 2
    <A_0> = 0
    <A_1> = 0
    <A_2> = 0
    <Phi> = 0
    <c0> = 0
    <c0i> = 0
    <c1> = 0
    <c1i> = 0
    <Mu_ssd> = 0
    <Sigma_ssd> = 0
    <innerangle> = 0
    <outerangle> = 0
  <EndBdry>
[BlockProps] = 3
  <BeginBlock>
    <BlockName> = "Pure Iron"
    <Mu_x> = 14872
    <Mu_y> = 14872
    <H_c> = 0
    <H_cAngle> = 0
    <J_re> = 0
    <J_im> = 0
    <Sigma> = 10.44
    <d_lam> = 0
    <Phi_h> = 0
    <Phi_hx> = 0
    <Phi_hy> = 0
    <LamType> = 0
    <LamFill> = 1
    <NStrands> = 0
    <WireD> = 0
    <BHPoints> = 21
      0.0	0.0
      0.2271	13.8984
      0.4541	27.7967
      0.6812	42.3974
      0.9083	61.4157
      1.1353	82.3824
      1.3624	144.669
      1.5894	897.76
      1.8124	4581.74
      2.01	17736.2
      2.1332	41339.3
      2.2	68321.8
      2.2548	95685.5
      2.2999	123355.0
      2.3425	151083.0
      2.3788	178954.0
      2.415	206825.0
      2.4513	234696.0
      2.4875	262568.0
      2.5238	290439.0
      2.56	318310.0
  <EndBlock>
  <BeginBlock>
    <BlockName> = "Copper"
    <Mu_x> = 1
    <Mu_y> = 1
    <H_c> = 0
    <H_cAngle> = 0
    <J_re> = 0
    <J_im> = 0
    <Sigma> = 58
    <d_lam> = 0
    <Phi_h> = 0
    <Phi_hx> = 0
    <Phi_hy> = 0
    <LamType> = 0
    <LamFill> = 1
    <NStrands> = 0
    <WireD> = 0
    <BHPoints> = 0
  <EndBlock>
  <BeginBlock>
    <BlockName> = "Air"
    <Mu_x> = 1
    <Mu_y> = 1
    <H_c> = 0
    <H_cAngle> = 0
    <J_re> = 0
    <J_im> = 0
    <Sigma> = 0
    <d_lam> = 0
    <Phi_h> = 0
    <Phi_hx> = 0
    <Phi_hy> = 0
    <LamType> = 0
    <LamFill> = 1
    <NStrands> = 0
    <WireD> = 0
    <BHPoints> = 0
  <EndBlock>
[CircuitProps] = 1
  <BeginCircuit>
    <CircuitName> = Circuit_4809A_0A_1
    <TotalAmps_re> = 4809
    <TotalAmps_im> = 0
    <CircuitType> = 1
  <EndCircuit>
[NumPoints] = 113
0.0	86.5	0	0
86.6	86.5	0	0
152.3	86.5	0	0
158.8	287.3	0	0
525.6	287.3	0	0
525.6	0.0	0	0
884.6	0.0	0	0
884.6	646.2	0	0
0.0	646.2	0	0
158.8	103.8	0	0
525.6	103.8	0	0
0.0	839.8000000000001	0	0
1150.5	839.8000000000001	0	0
1150.5	0.0	0	0
338.12960204081634	0.0	0	0
331.10920408163264	0.0	0	0
324.088806122449	0.0	0	0
317.0684081632653	0.0	0	0
310.0480102040816	0.0	0	0
303.02761224489797	0.0	0	0
296.00721428571427	0.0	0	0
288.98681632653063	0.0	0	0
281.96641836734693	0.0	0	0
274.9460204081633	0.0	0	0
267.9256224489796	0.0	0	0
260.9052244897959	0.0	0	0
253.88482653061223	0.0	0	0
246.86442857142853	0.0	0	0
239.84403061224486	0.0	0	0
232.8236326530612	0.0	0	0
225.80323469387753	0.0	0	0
218.78283673469386	0.0	0	0
211.7624387755102	0.0	0	0
204.74204081632652	0.0	0	0
197.72164285714283	0.0	0	0
190.70124489795916	0.0	0	0
183.6808469387755	0.0	0	0
176.66044897959182	0.0	0	0
169.64005102040815	0.0	0	0
162.61965306122448	0.0	0	0
155.5992551020408	0.0	0	0
148.57885714285712	0.0	0	0
141.55845918367345	0.0	0	0
134.53806122448978	0.0	0	0
127.51766326530611	0.0	0	0
120.49726530612243	0.0	0	0
113.47686734693876	0.0	0	0
106.45646938775509	0.0	0	0
99.43607142857141	0.0	0	0
92.41567346938774	0.0	0	0
85.39527551020407	0.0	0	0
78.37487755102039	0.0	0	0
71.35447959183672	0.0	0	0
64.33408163265305	0.0	0	0
57.313683673469384	0.0	0	0
50.29328571428571	0.0	0	0
43.27288775510204	0.0	0	0
36.252489795918365	0.0	0	0
29.232091836734693	0.0	0	0
22.21169387755102	0.0	0	0
15.191295918367345	0.0	0	0
8.170897959183673	0.0	0	0
1.1505	0.0	0	0
0.0	0.0	0	0
0.0	0.8398000000000001	0	0
0.0	5.964293877551021	0	0
0.0	11.088787755102041	0	0
0.0	16.21328163265306	0	0
0.0	21.337775510204082	0	0
0.0	26.462269387755104	0	0
0.0	31.58676326530612	0	0
0.0	36.71125714285714	0	0
0.0	41.83575102040816	0	0
0.0	46.96024489795918	0	0
0.0	52.0847387755102	0	0
0.0	57.20923265306122	0	0
0.0	62.33372653061224	0	0
0.0	67.45822040816326	0	0
0.0	72.58271428571429	0	0
0.0	77.7072081632653	0	0
0.0	82.83170204081632	0	0
0.0	87.95619591836734	0	0
0.0	93.08068979591836	0	0
0.0	98.20518367346939	0	0
0.0	103.32967755102041	0	0
0.0	108.45417142857143	0	0
0.0	113.57866530612245	0	0
0.0	118.70315918367346	0	0
0.0	123.82765306122448	0	0
0.0	128.9521469387755	0	0
0.0	134.07664081632652	0	0
0.0	139.20113469387755	0	0
0.0	144.32562857142858	0	0
0.0	149.45012244897958	0	0
0.0	154.57461632653062	0	0
0.0	159.69911020408162	0	0
0.0	164.82360408163265	0	0
0.0	169.94809795918368	0	0
0.0	175.0725918367347	0	0
0.0	180.19708571428572	0	0
0.0	185.32157959183672	0	0
0.0	190.44607346938776	0	0
0.0	195.5705673469388	0	0
0.0	200.6950612244898	0	0
0.0	205.81955510204082	0	0
0.0	210.94404897959183	0	0
0.0	216.06854285714286	0	0
0.0	221.1930367346939	0	0
0.0	226.3175306122449	0	0
0.0	231.44202448979593	0	0
0.0	236.56651836734693	0	0
0.0	241.69101224489796	0	0
0.0	246.81550612244897	0	0
[NumSegments] = 116
0	1	-1	0	0	0
1	2	-1	0	0	0
2	3	-1	0	0	0
5	10	-1	0	0	0
6	7	-1	0	0	0
8	7	-1	0	0	0
9	10	-1	0	0	0
10	4	-1	0	0	0
3	4	-1	0	0	0
9	3	-1	0	0	0
11	12	-1	1	0	0
13	12	-1	1	0	0
63	62	-1	2	0	0
62	61	-1	2	0	0
61	60	-1	2	0	0
60	59	-1	2	0	0
59	58	-1	2	0	0
58	57	-1	2	0	0
57	56	-1	2	0	0
56	55	-1	2	0	0
55	54	-1	2	0	0
54	53	-1	2	0	0
53	52	-1	2	0	0
52	51	-1	2	0	0
51	50	-1	2	0	0
50	49	-1	2	0	0
49	48	-1	2	0	0
48	47	-1	2	0	0
47	46	-1	2	0	0
46	45	-1	2	0	0
45	44	-1	2	0	0
44	43	-1	2	0	0
43	42	-1	2	0	0
42	41	-1	2	0	0
41	40	-1	2	0	0
40	39	-1	2	0	0
39	38	-1	2	0	0
38	37	-1	2	0	0
37	36	-1	2	0	0
36	35	-1	2	0	0
35	34	-1	2	0	0
34	33	-1	2	0	0
33	32	-1	2	0	0
32	31	-1	2	0	0
31	30	-1	2	0	0
30	29	-1	2	0	0
29	28	-1	2	0	0
28	27	-1	2	0	0
27	26	-1	2	0	0
26	25	-1	2	0	0
25	24	-1	2	0	0
24	23	-1	2	0	0
23	22	-1	2	0	0
22	21	-1	2	0	0
21	20	-1	2	0	0
20	19	-1	2	0	0
19	18	-1	2	0	0
18	17	-1	2	0	0
17	16	-1	2	0	0
16	15	-1	2	0	0
15	14	-1	2	0	0
14	5	-1	2	0	0
5	6	-1	2	0	0
6	13	-1	2	0	0
63	64	-1	1	0	0
64	65	-1	1	0	0
65	66	-1	1	0	0
66	67	-1	1	0	0
67	68	-1	1	0	0
68	69	-1	1	0	0
69	70	-1	1	0	0
70	71	-1	1	0	0
71	72	-1	1	0	0
72	73	-1	1	0	0
73	74	-1	1	0	0
74	75	-1	1	0	0
75	76	-1	1	0	0
76	77	-1	1	0	0
77	78	-1	1	0	0
78	79	-1	1	0	0
79	80	-1	1	0	0
80	0	-1	1	0	0
0	81	-1	1	0	0
81	82	-1	1	0	0
82	83	-1	1	0	0
83	84	-1	1	0	0
84	85	-1	1	0	0
85	86	-1	1	0	0
86	87	-1	1	0	0
87	88	-1	1	0	0
88	89	-1	1	0	0
89	90	-1	1	0	0
90	91	-1	1	0	0
91	92	-1	1	0	0
92	93	-1	1	0	0
93	94	-1	1	0	0
94	95	-1	1	0	0
95	96	-1	1	0	0
96	97	-1	1	0	0
97	98	-1	1	0	0
98	99	-1	1	0	0
99	100	-1	1	0	0
100	101	-1	1	0	0
101	102	-1	1	0	0
102	103	-1	1	0	0
103	104	-1	1	0	0
104	105	-1	1	0	0
105	106	-1	1	0	0
106	107	-1	1	0	0
107	108	-1	1	0	0
108	109	-1	1	0	0
109	110	-1	1	0	0
110	111	-1	1	0	0
111	112	-1	1	0	0
112	8	-1	1	0	0
8	11	-1	1	0	0
[NumArcSegments] = 0
[NumHoles] = 0
[NumBlockLabels] = 3
0.005	86.505	1	-1	0	0	0	1	0
158.805	103.80499999999999	2	-1	1	0	0	33	0
0.005	839.7900000000001	3	-1	0	0	0	1	2
