[Format] = 4.0
[Frequency] = 0
[Precision] = 1e-08
[MinAngle] = 30
[DoSmartMesh] = 1
[Depth] = 1000
[LengthUnits] = millimeters
[ProblemType] = planar
[Coordinates] = cartesian
[ACSolver] = 0
[PrevType] = 0
[PrevSoln] = ""
[Comment] = "Automatically created with eadevices."
[PointProps] = 0
[BdryProps] = 2
  <BeginBdry>
    <BdryName> = "B_parallel"
    <BdryType> = 0
    <A_0> = 0
    <A_1> = 0
    <A_2> = 0
    <Phi> = 0
    <c0> = 0
    <c0i> = 0
    <c1> = 0
    <c1i> = 0
    <Mu_ssd> = 0
    <Sigma_ssd> = 0
    <innerangle> = 0
    <outerangle> = 0
  <EndBdry>
  <BeginBdry>
    <BdryName> = "B_perpendicular"
    <BdryType> = 2
    <A_0> = 0
    <A_1> = 0
    <A_2> = 0
    <Phi> = 0
    <c0> = 0
    <c0i> = 0
    <c1> = 0
    <c1i> = 0
    <Mu_ssd> = 0
    <Sigma_ssd> = 0
    <innerangle> = 0
    <outerangle> = 0
  <EndBdry>
[BlockProps] = 3
  <BeginBlock>
    <BlockName> = "Pure Iron"
    <Mu_x> = 14872
    <Mu_y> = 14872
    <H_c> = 0
    <H_cAngle> = 0
    <J_re> = 0
    <J_im> = 0
    <Sigma> = 10.44
    <d_lam> = 0
    <Phi_h> = 0
    <Phi_hx> = 0
    <Phi_hy> = 0
    <LamType> = 0
    <LamFill> = 1
    <NStrands> = 0
    <WireD> = 0
    <BHPoints> = 21
      0.0	0.0
      0.2271	13.8984
      0.4541	27.7967
      0.6812	42.3974
      0.9083	61.4157
      1.1353	82.3824
      1.3624	144.669
      1.5894	897.76
      1.8124	4581.74
      2.01	17736.2
      2.1332	41339.3
      2.2	68321.8
      2.2548	95685.5
      2.2999	123355.0
      2.3425	151083.0
      2.3788	178954.0
      2.415	206825.0
      2.4513	234696.0
      2.4875	262568.0
      2.5238	290439.0
      2.56	318310.0
  <EndBlock>
  <BeginBlock>
    <BlockName> = "Copper"
    <Mu_x> = 1
    <Mu_y> = 1
    <H_c> = 0
    <H_cAngle> = 0
    <J_re> = 0
    <J_im> = 0
    <Sigma> = 58
    <d_lam> = 0
    <Phi_h> = 0
    <Phi_hx> = 0
    <Phi_hy> = 0
    <LamType> = 0
    <LamFill> = 1
    <NStrands> = 0
    <WireD> = 0
    <BHPoints> = 0
  <EndBlock>
  <BeginBlock>
    <BlockName> = "Air"
    <Mu_x> = 1
    <Mu_y> = 1
    <H_c> = 0
    <H_cAngle> = 0
    <J_re> = 0
    <J_im> = 0
    <Sigma> = 0
    <d_lam> = 0
    <Phi_h> = 0
    <Phi_hx> = 0
    <Phi_hy> = 0
    <LamType> = 0
    <LamFill> = 1
    <NStrands> = 0
    <WireD> = 0
    <BHPoints> = 0
  <EndBlock>
[CircuitProps] = 1
  <BeginCircuit>
    <CircuitName> = Circuit_71291A_0A_1
    <TotalAmps_re> = 71291
    <TotalAmps_im> = 0
    <CircuitType> = 1
  <EndCircuit>
[NumPoints] = 121
245.7	50.0	0	0
258.0	148.7	0	0
445.3	148.7	0	0
445.3	0.0	0	0
1176.8	0.0	0	0
1176.8	880.1	0	0
0.0	880.1	0	0
0.0	50.0	0	0
24.6	50.0	0	0
49.1	50.0	0	0
73.7	50.0	0	0
98.3	50.0	0	0
122.9	50.0	0	0
147.4	50.0	0	0
172.0	50.0	0	0
196.6	50.0	0	0
221.2	50.0	0	0
258.0	55.0	0	0
445.3	55.0	0	0
0.0	1144.0	0	0
1530.1000000000001	1144.0	0	0
1530.1000000000001	0.0	0	0
449.69326734693874	0.0	0	0
440.35653469387756	0.0	0	0
431.01980204081633	0.0	0	0
421.6830693877551	0.0	0	0
412.34633673469386	0.0	0	0
403.00960408163263	0.0	0	0
393.6728714285714	0.0	0	0
384.3361387755102	0.0	0	0
374.999406122449	0.0	0	0
365.66267346938776	0.0	0	0
356.3259408163265	0.0	0	0
346.9892081632653	0.0	0	0
337.65247551020406	0.0	0	0
328.3157428571429	0.0	0	0
318.97901020408165	0.0	0	0
309.6422775510204	0.0	0	0
300.3055448979592	0.0	0	0
290.96881224489795	0.0	0	0
281.6320795918367	0.0	0	0
272.2953469387755	0.0	0	0
262.9586142857143	0.0	0	0
253.62188163265307	0.0	0	0
244.28514897959184	0.0	0	0
234.9484163265306	0.0	0	0
225.61168367346937	0.0	0	0
216.27495102040817	0.0	0	0
206.93821836734693	0.0	0	0
197.6014857142857	0.0	0	0
188.2647530612245	0.0	0	0
178.92802040816326	0.0	0	0
169.59128775510203	0.0	0	0
160.25455510204083	0.0	0	0
150.9178224489796	0.0	0	0
141.58108979591836	0.0	0	0
132.24435714285715	0.0	0	0
122.90762448979592	0.0	0	0
113.57089183673469	0.0	0	0
104.23415918367347	0.0	0	0
94.89742653061225	0.0	0	0
85.56069387755102	0.0	0	0
76.2239612244898	0.0	0	0
66.88722857142858	0.0	0	0
57.55049591836734	0.0	0	0
48.21376326530612	0.0	0	0
38.877030612244894	0.0	0	0
29.540297959183672	0.0	0	0
20.20356530612245	0.0	0	0
10.866832653061225	0.0	0	0
1.5301000000000002	0.0	0	0
0.0	0.0	0	0
0.0	1.1440000000000001	0	0
0.0	8.124734693877551	0	0
0.0	15.105469387755102	0	0
0.0	22.08620408163265	0	0
0.0	29.066938775510202	0	0
0.0	36.04767346938775	0	0
0.0	43.028408163265304	0	0
0.0	50.009142857142855	0	0
0.0	56.989877551020406	0	0
0.0	63.97061224489796	0	0
0.0	70.95134693877552	0	0
0.0	77.93208163265307	0	0
0.0	84.91281632653062	0	0
0.0	91.89355102040817	0	0
0.0	98.87428571428572	0	0
0.0	105.85502040816327	0	0
0.0	112.83575510204082	0	0
0.0	119.81648979591837	0	0
0.0	126.79722448979592	0	0
0.0	133.7779591836735	0	0
0.0	140.75869387755102	0	0
0.0	147.73942857142856	0	0
0.0	154.72016326530613	0	0
0.0	161.7008979591837	0	0
0.0	168.68163265306123	0	0
0.0	175.66236734693877	0	0
0.0	182.64310204081633	0	0
0.0	189.6238367346939	0	0
0.0	196.60457142857143	0	0
0.0	203.58530612244897	0	0
0.0	210.56604081632653	0	0
0.0	217.5467755102041	0	0
0.0	224.52751020408164	0	0
0.0	231.50824489795917	0	0
0.0	238.48897959183674	0	0
0.0	245.4697142857143	0	0
0.0	252.45044897959184	0	0
0.0	259.4311836734694	0	0
0.0	266.41191836734697	0	0
0.0	273.3926530612245	0	0
0.0	280.37338775510204	0	0
0.0	287.3541224489796	0	0
0.0	294.3348571428571	0	0
0.0	301.3155918367347	0	0
0.0	308.29632653061225	0	0
0.0	315.2770612244898	0	0
0.0	322.2577959183674	0	0
0.0	329.2385306122449	0	0
0.0	336.21926530612245	0	0
[NumSegments] = 124
0	1	-1	0	0	0
3	18	-1	0	0	0
4	5	-1	0	0	0
6	5	-1	0	0	0
7	8	-1	0	0	0
8	9	-1	0	0	0
9	10	-1	0	0	0
10	11	-1	0	0	0
11	12	-1	0	0	0
12	13	-1	0	0	0
13	14	-1	0	0	0
14	15	-1	0	0	0
15	16	-1	0	0	0
16	0	-1	0	0	0
17	18	-1	0	0	0
18	2	-1	0	0	0
1	2	-1	0	0	0
17	1	-1	0	0	0
19	20	-1	1	0	0
21	20	-1	1	0	0
71	70	-1	2	0	0
70	69	-1	2	0	0
69	68	-1	2	0	0
68	67	-1	2	0	0
67	66	-1	2	0	0
66	65	-1	2	0	0
65	64	-1	2	0	0
64	63	-1	2	0	0
63	62	-1	2	0	0
62	61	-1	2	0	0
61	60	-1	2	0	0
60	59	-1	2	0	0
59	58	-1	2	0	0
58	57	-1	2	0	0
57	56	-1	2	0	0
56	55	-1	2	0	0
55	54	-1	2	0	0
54	53	-1	2	0	0
53	52	-1	2	0	0
52	51	-1	2	0	0
51	50	-1	2	0	0
50	49	-1	2	0	0
49	48	-1	2	0	0
48	47	-1	2	0	0
47	46	-1	2	0	0
46	45	-1	2	0	0
45	44	-1	2	0	0
44	43	-1	2	0	0
43	42	-1	2	0	0
42	41	-1	2	0	0
41	40	-1	2	0	0
40	39	-1	2	0	0
39	38	-1	2	0	0
38	37	-1	2	0	0
37	36	-1	2	0	0
36	35	-1	2	0	0
35	34	-1	2	0	0
34	33	-1	2	0	0
33	32	-1	2	0	0
32	31	-1	2	0	0
31	30	-1	2	0	0
30	29	-1	2	0	0
29	28	-1	2	0	0
28	27	-1	2	0	0
27	26	-1	2	0	0
26	25	-1	2	0	0
25	24	-1	2	0	0
24	23	-1	2	0	0
23	3	-1	2	0	0
3	22	-1	2	0	0
22	4	-1	2	0	0
4	21	-1	2	0	0
71	72	-1	1	0	0
72	73	-1	1	0	0
73	74	-1	1	0	0
74	75	-1	1	0	0
75	76	-1	1	0	0
76	77	-1	1	0	0
77	78	-1	1	0	0
78	7	-1	1	0	0
7	79	-1	1	0	0
79	80	-1	1	0	0
80	81	-1	1	0	0
81	82	-1	1	0	0
82	83	-1	1	0	0
83	84	-1	1	0	0
84	85	-1	1	0	0
85	86	-1	1	0	0
86	87	-1	1	0	0
87	88	-1	1	0	0
88	89	-1	1	0	0
89	90	-1	1	0	0
90	91	-1	1	0	0
91	92	-1	1	0	0
92	93	-1	1	0	0
93	94	-1	1	0	0
94	95	-1	1	0	0
95	96	-1	1	0	0
96	97	-1	1	0	0
97	98	-1	1	0	0
98	99	-1	1	0	0
99	100	-1	1	0	0
100	101	-1	1	0	0
101	102	-1	1	0	0
102	103	-1	1	0	0
103	104	-1	1	0	0
104	105	-1	1	0	0
105	106	-1	1	0	0
106	107	-1	1	0	0
107	108	-1	1	0	0
108	109	-1	1	0	0
109	110	-1	1	0	0
110	111	-1	1	0	0
111	112	-1	1	0	0
112	113	-1	1	0	0
113	114	-1	1	0	0
114	115	-1	1	0	0
115	116	-1	1	0	0
116	117	-1	1	0	0
117	118	-1	1	0	0
118	119	-1	1	0	0
119	120	-1	1	0	0
120	6	-1	1	0	0
6	19	-1	1	0	0
[NumArcSegments] = 0
[NumHoles] = 0
[NumBlockLabels] = 3
245.69	50.005	1	-1	0	0	0	1	0
258.005	55.005	2	-1	1	0	0	1	0
0.005	1143.99	3	-1	0	0	0	1	2
