[Format] = 4.0
[Frequency] = 0
[Precision] = 1e-08
[MinAngle] = 30
[DoSmartMesh] = 1
[Depth] = 1000
[LengthUnits] = millimeters
[ProblemType] = planar
[Coordinates] = cartesian
[ACSolver] = 0
[PrevType] = 0
[PrevSoln] = ""
[Comment] = "Automatically created with eadevices."
[PointProps] = 0
[BdryProps] = 2
  <BeginBdry>
    <BdryName> = "B_parallel"
    <BdryType> = 0
    <A_0> = 0
    <A_1> = 0
    <A_2> = 0
    <Phi> = 0
    <c0> = 0
    <c0i> = 0
    <c1> = 0
    <c1i> = 0
    <Mu_ssd> = 0
    <Sigma_ssd> = 0
    <innerangle> = 0
    <outerangle> = 0
  <EndBdry>
  <BeginBdry>
    <BdryName> = "B_perpendicular"
    <BdryType> = 2
    <A_0> = 0
    <A_1> = 0
    <A_2> = 0
    <Phi> = 0
    <c0> = 0
    <c0i> = 0
    <c1> = 0
    <c1i> = 0
    <Mu_ssd> = 0
    <Sigma_ssd> = 0
    <innerangle> = 0
    <outerangle> = 0
  <EndBdry>
[BlockProps] = 3
  <BeginBlock>
    <BlockName> = "Pure Iron"
    <Mu_x> = 14872
    <Mu_y> = 14872
    <H_c> = 0
    <H_cAngle> = 0
    <J_re> = 0
    <J_im> = 0
    <Sigma> = 10.44
    <d_lam> = 0
    <Phi_h> = 0
    <Phi_hx> = 0
    <Phi_hy> = 0
    <LamType> = 0
    <LamFill> = 1
    <NStrands> = 0
    <WireD> = 0
    <BHPoints> = 21
      0.0	0.0
      0.2271	13.8984
      0.4541	27.7967
      0.6812	42.3974
      0.9083	61.4157
      1.1353	82.3824
      1.3624	144.669
      1.5894	897.76
      1.8124	4581.74
      2.01	17736.2
      2.1332	41339.3
      2.2	68321.8
      2.2548	95685.5
      2.2999	123355.0
      2.3425	151083.0
      2.3788	178954.0
      2.415	206825.0
      2.4513	234696.0
      2.4875	262568.0
      2.5238	290439.0
      2.56	318310.0
  <EndBlock>
  <BeginBlock>
    <BlockName> = "Copper"
    <Mu_x> = 1
    <Mu_y> = 1
    <H_c> = 0
    <H_cAngle> = 0
    <J_re> = 0
    <J_im> = 0
    <Sigma> = 58
    <d_lam> = 0
    <Phi_h> = 0
    <Phi_hx> = 0
    <Phi_hy> = 0
    <LamType> = 0
    <LamFill> = 1
    <NStrands> = 0
    <WireD> = 0
    <BHPoints> = 0
  <EndBlock>
  <BeginBlock>
    <BlockName> = "Air"
    <Mu_x> = 1
    <Mu_y> = 1
    <H_c> = 0
    <H_cAngle> = 0
    <J_re> = 0
    <J_im> = 0
    <Sigma> = 0
    <d_lam> = 0
    <Phi_h> = 0
    <Phi_hx> = 0
    <Phi_hy> = 0
    <LamType> = 0
    <LamFill> = 1
    <NStrands> = 0
    <WireD> = 0
    <BHPoints> = 0
  <EndBlock>
[CircuitProps] = 1
  <BeginCircuit>
    <CircuitName> = Circuit_75340A_0A_1
    <TotalAmps_re> = 75340
    <TotalAmps_im> = 0
    <CircuitType> = 1
  <EndCircuit>
[NumPoints] = 121
233.7	51.8	0	0
245.4	157.3	0	0
446.0	157.3	0	0
446.0	0.0	0	0
944.0	0.0	0	0
944.0	655.3	0	0
0.0	655.3	0	0
0.0	51.8	0	0
23.4	51.8	0	0
46.7	51.8	0	0
70.1	51.8	0	0
93.5	51.8	0	0
116.9	51.8	0	0
140.2	51.8	0	0
163.6	51.8	0	0
187.0	51.8	0	0
210.4	51.8	0	0
245.4	57.0	0	0
446.0	57.0	0	0
0.0	851.5	0	0
1227.2	851.5	0	0
1227.2	0.0	0	0
360.67157551020415	0.0	0	0
353.1831510204082	0.0	0	0
345.6947265306123	0.0	0	0
338.20630204081635	0.0	0	0
330.7178775510204	0.0	0	0
323.22945306122455	0.0	0	0
315.7410285714286	0.0	0	0
308.2526040816327	0.0	0	0
300.76417959183675	0.0	0	0
293.2757551020408	0.0	0	0
285.78733061224494	0.0	0	0
278.298906122449	0.0	0	0
270.8104816326531	0.0	0	0
263.32205714285715	0.0	0	0
255.83363265306127	0.0	0	0
248.34520816326537	0.0	0	0
240.85678367346944	0.0	0	0
233.3683591836735	0.0	0	0
225.8799346938776	0.0	0	0
218.39151020408167	0.0	0	0
210.90308571428577	0.0	0	0
203.41466122448983	0.0	0	0
195.92623673469393	0.0	0	0
188.437812244898	0.0	0	0
180.9493877551021	0.0	0	0
173.46096326530616	0.0	0	0
165.97253877551023	0.0	0	0
158.48411428571433	0.0	0	0
150.9956897959184	0.0	0	0
143.5072653061225	0.0	0	0
136.01884081632656	0.0	0	0
128.53041632653063	0.0	0	0
121.04199183673471	0.0	0	0
113.55356734693879	0.0	0	0
106.06514285714287	0.0	0	0
98.57671836734696	0.0	0	0
91.08829387755104	0.0	0	0
83.5998693877551	0.0	0	0
76.11144489795919	0.0	0	0
68.62302040816327	0.0	0	0
61.13459591836736	0.0	0	0
53.64617142857144	0.0	0	0
46.157746938775524	0.0	0	0
38.6693224489796	0.0	0	0
31.180897959183678	0.0	0	0
23.69247346938776	0.0	0	0
16.20404897959184	0.0	0	0
8.71562448979592	0.0	0	0
1.2272	0.0	0	0
0.0	0.0	0	0
0.0	0.8515	0	0
0.0	6.047387755102041	0	0
0.0	11.243275510204082	0	0
0.0	16.439163265306124	0	0
0.0	21.635051020408167	0	0
0.0	26.83093877551021	0	0
0.0	32.02682653061225	0	0
0.0	37.22271428571429	0	0
0.0	42.41860204081633	0	0
0.0	47.614489795918374	0	0
0.0	52.810377551020416	0	0
0.0	58.00626530612246	0	0
0.0	63.20215306122449	0	0
0.0	68.39804081632654	0	0
0.0	73.59392857142858	0	0
0.0	78.78981632653063	0	0
0.0	83.98570408163266	0	0
0.0	89.1815918367347	0	0
0.0	94.37747959183675	0	0
0.0	99.57336734693878	0	0
0.0	104.76925510204083	0	0
0.0	109.96514285714287	0	0
0.0	115.16103061224491	0	0
0.0	120.35691836734695	0	0
0.0	125.55280612244898	0	0
0.0	130.748693877551	0	0
0.0	135.94458163265307	0	0
0.0	141.1404693877551	0	0
0.0	146.33635714285714	0	0
0.0	151.53224489795917	0	0
0.0	156.72813265306124	0	0
0.0	161.92402040816327	0	0
0.0	167.1199081632653	0	0
0.0	172.31579591836734	0	0
0.0	177.51168367346938	0	0
0.0	182.70757142857144	0	0
0.0	187.90345918367348	0	0
0.0	193.0993469387755	0	0
0.0	198.29523469387755	0	0
0.0	203.4911224489796	0	0
0.0	208.68701020408164	0	0
0.0	213.88289795918368	0	0
0.0	219.07878571428571	0	0
0.0	224.27467346938775	0	0
0.0	229.4705612244898	0	0
0.0	234.66644897959185	0	0
0.0	239.86233673469388	0	0
0.0	245.05822448979592	0	0
0.0	250.25411224489795	0	0
[NumSegments] = 124
0	1	-1	0	0	0
3	18	-1	0	0	0
4	5	-1	0	0	0
6	5	-1	0	0	0
7	8	-1	0	0	0
8	9	-1	0	0	0
9	10	-1	0	0	0
10	11	-1	0	0	0
11	12	-1	0	0	0
12	13	-1	0	0	0
13	14	-1	0	0	0
14	15	-1	0	0	0
15	16	-1	0	0	0
16	0	-1	0	0	0
17	18	-1	0	0	0
18	2	-1	0	0	0
1	2	-1	0	0	0
17	1	-1	0	0	0
19	20	-1	1	0	0
21	20	-1	1	0	0
71	70	-1	2	0	0
70	69	-1	2	0	0
69	68	-1	2	0	0
68	67	-1	2	0	0
67	66	-1	2	0	0
66	65	-1	2	0	0
65	64	-1	2	0	0
64	63	-1	2	0	0
63	62	-1	2	0	0
62	61	-1	2	0	0
61	60	-1	2	0	0
60	59	-1	2	0	0
59	58	-1	2	0	0
58	57	-1	2	0	0
57	56	-1	2	0	0
56	55	-1	2	0	0
55	54	-1	2	0	0
54	53	-1	2	0	0
53	52	-1	2	0	0
52	51	-1	2	0	0
51	50	-1	2	0	0
50	49	-1	2	0	0
49	48	-1	2	0	0
48	47	-1	2	0	0
47	46	-1	2	0	0
46	45	-1	2	0	0
45	44	-1	2	0	0
44	43	-1	2	0	0
43	42	-1	2	0	0
42	41	-1	2	0	0
41	40	-1	2	0	0
40	39	-1	2	0	0
39	38	-1	2	0	0
38	37	-1	2	0	0
37	36	-1	2	0	0
36	35	-1	2	0	0
35	34	-1	2	0	0
34	33	-1	2	0	0
33	32	-1	2	0	0
32	31	-1	2	0	0
31	30	-1	2	0	0
30	29	-1	2	0	0
29	28	-1	2	0	0
28	27	-1	2	0	0
27	26	-1	2	0	0
26	25	-1	2	0	0
25	24	-1	2	0	0
24	23	-1	2	0	0
23	22	-1	2	0	0
22	3	-1	2	0	0
3	4	-1	2	0	0
4	21	-1	2	0	0
71	72	-1	1	0	0
72	73	-1	1	0	0
73	74	-1	1	0	0
74	75	-1	1	0	0
75	76	-1	1	0	0
76	77	-1	1	0	0
77	78	-1	1	0	0
78	79	-1	1	0	0
79	80	-1	1	0	0
80	81	-1	1	0	0
81	7	-1	1	0	0
7	82	-1	1	0	0
82	83	-1	1	0	0
83	84	-1	1	0	0
84	85	-1	1	0	0
85	86	-1	1	0	0
86	87	-1	1	0	0
87	88	-1	1	0	0
88	89	-1	1	0	0
89	90	-1	1	0	0
90	91	-1	1	0	0
91	92	-1	1	0	0
92	93	-1	1	0	0
93	94	-1	1	0	0
94	95	-1	1	0	0
95	96	-1	1	0	0
96	97	-1	1	0	0
97	98	-1	1	0	0
98	99	-1	1	0	0
99	100	-1	1	0	0
100	101	-1	1	0	0
101	102	-1	1	0	0
102	103	-1	1	0	0
103	104	-1	1	0	0
104	105	-1	1	0	0
105	106	-1	1	0	0
106	107	-1	1	0	0
107	108	-1	1	0	0
108	109	-1	1	0	0
109	110	-1	1	0	0
110	111	-1	1	0	0
111	112	-1	1	0	0
112	113	-1	1	0	0
113	114	-1	1	0	0
114	115	-1	1	0	0
115	116	-1	1	0	0
116	117	-1	1	0	0
117	118	-1	1	0	0
118	119	-1	1	0	0
119	120	-1	1	0	0
120	6	-1	1	0	0
6	19	-1	1	0	0
[NumArcSegments] = 0
[NumHoles] = 0
[NumBlockLabels] = 3
233.69	51.805	1	-1	0	0	0	1	0
245.405	57.005	2	-1	1	0	0	1	0
0.005	851.49	3	-1	0	0	0	1	2
