[Format] = 4.0
[Frequency] = 0
[Precision] = 1e-08
[MinAngle] = 30
[DoSmartMesh] = 1
[Depth] = 1000
[LengthUnits] = millimeters
[ProblemType] = planar
[Coordinates] = cartesian
[ACSolver] = 0
[PrevType] = 0
[PrevSoln] = ""
[Comment] = "Automatically created with eadevices."
[PointProps] = 0
[BdryProps] = 2
  <BeginBdry>
    <BdryName> = "B_parallel"
    <BdryType> = 0
    <A_0> = 0
    <A_1> = 0
    <A_2> = 0
    <Phi> = 0
    <c0> = 0
    <c0i> = 0
    <c1> = 0
    <c1i> = 0
    <Mu_ssd> = 0
    <Sigma_ssd> = 0
    <innerangle> = 0
    <outerangle> = 0
  <EndBdry>
  <BeginBdry>
    <BdryName> = "B_perpendicular"
    <BdryType> = 2
    <A_0> = 0
    <A_1> = 0
    <A_2> = 0
    <Phi> = 0
    <c0> = 0
    <c0i> = 0
    <c1> = 0
    <c1i> = 0
    <Mu_ssd> = 0
    <Sigma_ssd> = 0
    <innerangle> = 0
    <outerangle> = 0
  <EndBdry>
[BlockProps] = 3
  <BeginBlock>
    <BlockName> = "Pure Iron"
    <Mu_x> = 14872
    <Mu_y> = 14872
    <H_c> = 0
    <H_cAngle> = 0
    <J_re> = 0
    <J_im> = 0
    <Sigma> = 10.44
    <d_lam> = 0
    <Phi_h> = 0
    <Phi_hx> = 0
    <Phi_hy> = 0
    <LamType> = 0
    <LamFill> = 1
    <NStrands> = 0
    <WireD> = 0
    <BHPoints> = 21
      0.0	0.0
      0.2271	13.8984
      0.4541	27.7967
      0.6812	42.3974
      0.9083	61.4157
      1.1353	82.3824
      1.3624	144.669
      1.5894	897.76
      1.8124	4581.74
      2.01	17736.2
      2.1332	41339.3
      2.2	68321.8
      2.2548	95685.5
      2.2999	123355.0
      2.3425	151083.0
      2.3788	178954.0
      2.415	206825.0
      2.4513	234696.0
      2.4875	262568.0
      2.5238	290439.0
      2.56	318310.0
  <EndBlock>
  <BeginBlock>
    <BlockName> = "Copper"
    <Mu_x> = 1
    <Mu_y> = 1
    <H_c> = 0
    <H_cAngle> = 0
    <J_re> = 0
    <J_im> = 0
    <Sigma> = 58
    <d_lam> = 0
    <Phi_h> = 0
    <Phi_hx> = 0
    <Phi_hy> = 0
    <LamType> = 0
    <LamFill> = 1
    <NStrands> = 0
    <WireD> = 0
    <BHPoints> = 0
  <EndBlock>
  <BeginBlock>
    <BlockName> = "Air"
    <Mu_x> = 1
    <Mu_y> = 1
    <H_c> = 0
    <H_cAngle> = 0
    <J_re> = 0
    <J_im> = 0
    <Sigma> = 0
    <d_lam> = 0
    <Phi_h> = 0
    <Phi_hx> = 0
    <Phi_hy> = 0
    <LamType> = 0
    <LamFill> = 1
    <NStrands> = 0
    <WireD> = 0
    <BHPoints> = 0
  <EndBlock>
[CircuitProps] = 1
  <BeginCircuit>
    <CircuitName> = Circuit_4971A_0A_1
    <TotalAmps_re> = 4971
    <TotalAmps_im> = 0
    <CircuitType> = 1
  <EndCircuit>
[NumPoints] = 113
0.0	51.8	0	0
102.9	51.8	0	0
351.4	51.8	0	0
376.2	138.9	0	0
529.7	138.9	0	0
529.7	0.0	0	0
939.4	0.0	0	0
939.4	548.6	0	0
0.0	548.6	0	0
376.2	62.2	0	0
529.7	62.2	0	0
0.0	713.7	0	0
1220.7	713.7	0	0
1220.7	0.0	0	0
358.7612387755102	0.0	0	0
351.3124775510204	0.0	0	0
343.8637163265306	0.0	0	0
336.4149551020408	0.0	0	0
328.966193877551	0.0	0	0
321.5174326530612	0.0	0	0
314.0686714285714	0.0	0	0
306.61991020408163	0.0	0	0
299.1711489795918	0.0	0	0
291.72238775510203	0.0	0	0
284.2736265306122	0.0	0	0
276.82486530612243	0.0	0	0
269.37610408163266	0.0	0	0
261.92734285714283	0.0	0	0
254.47858163265303	0.0	0	0
247.02982040816323	0.0	0	0
239.58105918367343	0.0	0	0
232.13229795918363	0.0	0	0
224.68353673469383	0.0	0	0
217.23477551020406	0.0	0	0
209.78601428571426	0.0	0	0
202.33725306122446	0.0	0	0
194.88849183673466	0.0	0	0
187.43973061224486	0.0	0	0
179.9909693877551	0.0	0	0
172.5422081632653	0.0	0	0
165.0934469387755	0.0	0	0
157.64468571428569	0.0	0	0
150.19592448979589	0.0	0	0
142.74716326530609	0.0	0	0
135.2984020408163	0.0	0	0
127.84964081632651	0.0	0	0
120.40087959183671	0.0	0	0
112.95211836734691	0.0	0	0
105.50335714285713	0.0	0	0
98.05459591836733	0.0	0	0
90.60583469387754	0.0	0	0
83.15707346938774	0.0	0	0
75.70831224489794	0.0	0	0
68.25955102040815	0.0	0	0
60.81078979591836	0.0	0	0
53.36202857142857	0.0	0	0
45.913267346938774	0.0	0	0
38.464506122448974	0.0	0	0
31.01574489795918	0.0	0	0
23.566983673469387	0.0	0	0
16.11822244897959	0.0	0	0
8.669461224489796	0.0	0	0
1.2207000000000001	0.0	0	0
0.0	0.0	0	0
0.0	0.7137000000000001	0	0
0.0	5.0687265306122455	0	0
0.0	9.42375306122449	0	0
0.0	13.778779591836734	0	0
0.0	18.13380612244898	0	0
0.0	22.488832653061227	0	0
0.0	26.84385918367347	0	0
0.0	31.198885714285716	0	0
0.0	35.553912244897965	0	0
0.0	39.90893877551021	0	0
0.0	44.26396530612246	0	0
0.0	48.6189918367347	0	0
0.0	52.97401836734694	0	0
0.0	57.32904489795919	0	0
0.0	61.684071428571436	0	0
0.0	66.03909795918368	0	0
0.0	70.39412448979593	0	0
0.0	74.74915102040818	0	0
0.0	79.10417755102041	0	0
0.0	83.45920408163266	0	0
0.0	87.81423061224491	0	0
0.0	92.16925714285715	0	0
0.0	96.5242836734694	0	0
0.0	100.87931020408165	0	0
0.0	105.23433673469388	0	0
0.0	109.58936326530613	0	0
0.0	113.94438979591838	0	0
0.0	118.29941632653063	0	0
0.0	122.65444285714287	0	0
0.0	127.00946938775512	0	0
0.0	131.36449591836734	0	0
0.0	135.7195224489796	0	0
0.0	140.07454897959184	0	0
0.0	144.42957551020407	0	0
0.0	148.78460204081634	0	0
0.0	153.13962857142857	0	0
0.0	157.4946551020408	0	0
0.0	161.84968163265307	0	0
0.0	166.2047081632653	0	0
0.0	170.55973469387754	0	0
0.0	174.9147612244898	0	0
0.0	179.26978775510204	0	0
0.0	183.62481428571428	0	0
0.0	187.97984081632654	0	0
0.0	192.33486734693878	0	0
0.0	196.68989387755101	0	0
0.0	201.04492040816328	0	0
0.0	205.3999469387755	0	0
0.0	209.75497346938775	0	0
[NumSegments] = 116
0	1	-1	0	0	0
1	2	-1	0	0	0
2	3	-1	0	0	0
5	10	-1	0	0	0
6	7	-1	0	0	0
8	7	-1	0	0	0
9	10	-1	0	0	0
10	4	-1	0	0	0
3	4	-1	0	0	0
9	3	-1	0	0	0
11	12	-1	1	0	0
13	12	-1	1	0	0
63	62	-1	2	0	0
62	61	-1	2	0	0
61	60	-1	2	0	0
60	59	-1	2	0	0
59	58	-1	2	0	0
58	57	-1	2	0	0
57	56	-1	2	0	0
56	55	-1	2	0	0
55	54	-1	2	0	0
54	53	-1	2	0	0
53	52	-1	2	0	0
52	51	-1	2	0	0
51	50	-1	2	0	0
50	49	-1	2	0	0
49	48	-1	2	0	0
48	47	-1	2	0	0
47	46	-1	2	0	0
46	45	-1	2	0	0
45	44	-1	2	0	0
44	43	-1	2	0	0
43	42	-1	2	0	0
42	41	-1	2	0	0
41	40	-1	2	0	0
40	39	-1	2	0	0
39	38	-1	2	0	0
38	37	-1	2	0	0
37	36	-1	2	0	0
36	35	-1	2	0	0
35	34	-1	2	0	0
34	33	-1	2	0	0
33	32	-1	2	0	0
32	31	-1	2	0	0
31	30	-1	2	0	0
30	29	-1	2	0	0
29	28	-1	2	0	0
28	27	-1	2	0	0
27	26	-1	2	0	0
26	25	-1	2	0	0
25	24	-1	2	0	0
24	23	-1	2	0	0
23	22	-1	2	0	0
22	21	-1	2	0	0
21	20	-1	2	0	0
20	19	-1	2	0	0
19	18	-1	2	0	0
18	17	-1	2	0	0
17	16	-1	2	0	0
16	15	-1	2	0	0
15	14	-1	2	0	0
14	5	-1	2	0	0
5	6	-1	2	0	0
6	13	-1	2	0	0
63	64	-1	1	0	0
64	65	-1	1	0	0
65	66	-1	1	0	0
66	67	-1	1	0	0
67	68	-1	1	0	0
68	69	-1	1	0	0
69	70	-1	1	0	0
70	71	-1	1	0	0
71	72	-1	1	0	0
72	73	-1	1	0	0
73	74	-1	1	0	0
74	75	-1	1	0	0
75	0	-1	1	0	0
0	76	-1	1	0	0
76	77	-1	1	0	0
77	78	-1	1	0	0
78	79	-1	1	0	0
79	80	-1	1	0	0
80	81	-1	1	0	0
81	82	-1	1	0	0
82	83	-1	1	0	0
83	84	-1	1	0	0
84	85	-1	1	0	0
85	86	-1	1	0	0
86	87	-1	1	0	0
87	88	-1	1	0	0
88	89	-1	1	0	0
89	90	-1	1	0	0
90	91	-1	1	0	0
91	92	-1	1	0	0
92	93	-1	1	0	0
93	94	-1	1	0	0
94	95	-1	1	0	0
95	96	-1	1	0	0
96	97	-1	1	0	0
97	98	-1	1	0	0
98	99	-1	1	0	0
99	100	-1	1	0	0
100	101	-1	1	0	0
101	102	-1	1	0	0
102	103	-1	1	0	0
103	104	-1	1	0	0
104	105	-1	1	0	0
105	106	-1	1	0	0
106	107	-1	1	0	0
107	108	-1	1	0	0
108	109	-1	1	0	0
109	110	-1	1	0	0
110	111	-1	1	0	0
111	112	-1	1	0	0
112	8	-1	1	0	0
8	11	-1	1	0	0
[NumArcSegments] = 0
[NumHoles] = 0
[NumBlockLabels] = 3
0.005	51.805	1	-1	0	0	0	1	0
376.205	62.205000000000005	2	-1	1	0	0	16	0
0.005	713.69	3	-1	0	0	0	1	2
