[Format] = 4.0
[Frequency] = 0
[Precision] = 1e-08
[MinAngle] = 30
[DoSmartMesh] = 1
[Depth] = 1000
[LengthUnits] = millimeters
[ProblemType] = planar
[Coordinates] = cartesian
[ACSolver] = 0
[PrevType] = 0
[PrevSoln] = ""
[Comment] = "Automatically created with eadevices."
[PointProps] = 0
[BdryProps] = 2
  <BeginBdry>
    <BdryName> = "B_parallel"
    <BdryType> = 0
    <A_0> = 0
    <A_1> = 0
    <A_2> = 0
    <Phi> = 0
    <c0> = 0
    <c0i> = 0
    <c1> = 0
    <c1i> = 0
    <Mu_ssd> = 0
    <Sigma_ssd> = 0
    <innerangle> = 0
    <outerangle> = 0
  <EndBdry>
  <BeginBdry>
    <BdryName> = "B_perpendicular"
    <BdryType> = 2
    <A_0> = 0
    <A_1> = 0
    <A_2> = 0
    <Phi> = 0
    <c0> = 0
    <c0i> = 0
    <c1> = 0
    <c1i> = 0
    <Mu_ssd> = 0
    <Sigma_ssd> = 0
    <innerangle> = 0
    <outerangle> = 0
  <EndBdry>
[BlockProps] = 3
  <BeginBlock>
    <BlockName> = "Pure Iron"
    <Mu_x> = 14872
    <Mu_y> = 14872
    <H_c> = 0
    <H_cAngle> = 0
    <J_re> = 0
    <J_im> = 0
    <Sigma> = 10.44
    <d_lam> = 0
    <Phi_h> = 0
    <Phi_hx> = 0
    <Phi_hy> = 0
    <LamType> = 0
    <LamFill> = 1
    <NStrands> = 0
    <WireD> = 0
    <BHPoints> = 21
      0.0	0.0
      0.2271	13.8984
      0.4541	27.7967
      0.6812	42.3974
      0.9083	61.4157
      1.1353	82.3824
      1.3624	144.669
      1.5894	897.76
      1.8124	4581.74
      2.01	17736.2
      2.1332	41339.3
      2.2	68321.8
      2.2548	95685.5
      2.2999	123355.0
      2.3425	151083.0
      2.3788	178954.0
      2.415	206825.0
      2.4513	234696.0
      2.4875	262568.0
      2.5238	290439.0
      2.56	318310.0
  <EndBlock>
  <BeginBlock>
    <BlockName> = "Copper"
    <Mu_x> = 1
    <Mu_y> = 1
    <H_c> = 0
    <H_cAngle> = 0
    <J_re> = 0
    <J_im> = 0
    <Sigma> = 58
    <d_lam> = 0
    <Phi_h> = 0
    <Phi_hx> = 0
    <Phi_hy> = 0
    <LamType> = 0
    <LamFill> = 1
    <NStrands> = 0
    <WireD> = 0
    <BHPoints> = 0
  <EndBlock>
  <BeginBlock>
    <BlockName> = "Air"
    <Mu_x> = 1
    <Mu_y> = 1
    <H_c> = 0
    <H_cAngle> = 0
    <J_re> = 0
    <J_im> = 0
    <Sigma> = 0
    <d_lam> = 0
    <Phi_h> = 0
    <Phi_hx> = 0
    <Phi_hy> = 0
    <LamType> = 0
    <LamFill> = 1
    <NStrands> = 0
    <WireD> = 0
    <BHPoints> = 0
  <EndBlock>
[CircuitProps] = 1
  <BeginCircuit>
    <CircuitName> = Circuit_4884A_0A_1
    <TotalAmps_re> = 4884
    <TotalAmps_im> = 0
    <CircuitType> = 1
  <EndCircuit>
[NumPoints] = 113
0.0	78.2	0	0
98.2	78.2	0	0
172.8	78.2	0	0
180.2	266.2	0	0
524.9	266.2	0	0
524.9	0.0	0	0
873.3	0.0	0	0
873.3	614.6	0	0
0.0	614.6	0	0
180.2	93.9	0	0
524.9	93.9	0	0
0.0	799.5	0	0
1134.9	799.5	0	0
1134.9	0.0	0	0
333.54479387755106	0.0	0	0
326.6195877551021	0.0	0	0
319.6943816326531	0.0	0	0
312.7691755102041	0.0	0	0
305.8439693877551	0.0	0	0
298.91876326530615	0.0	0	0
291.9935571428572	0.0	0	0
285.0683510204082	0.0	0	0
278.14314489795925	0.0	0	0
271.2179387755102	0.0	0	0
264.29273265306125	0.0	0	0
257.3675265306123	0.0	0	0
250.44232040816328	0.0	0	0
243.51711428571429	0.0	0	0
236.59190816326532	0.0	0	0
229.66670204081632	0.0	0	0
222.74149591836735	0.0	0	0
215.81628979591838	0.0	0	0
208.89108367346938	0.0	0	0
201.9658775510204	0.0	0	0
195.04067142857141	0.0	0	0
188.11546530612245	0.0	0	0
181.19025918367348	0.0	0	0
174.26505306122448	0.0	0	0
167.3398469387755	0.0	0	0
160.41464081632654	0.0	0	0
153.48943469387754	0.0	0	0
146.56422857142857	0.0	0	0
139.6390224489796	0.0	0	0
132.7138163265306	0.0	0	0
125.78861020408165	0.0	0	0
118.86340408163267	0.0	0	0
111.93819795918368	0.0	0	0
105.0129918367347	0.0	0	0
98.08778571428572	0.0	0	0
91.16257959183675	0.0	0	0
84.23737346938776	0.0	0	0
77.31216734693878	0.0	0	0
70.38696122448981	0.0	0	0
63.461755102040826	0.0	0	0
56.53654897959184	0.0	0	0
49.61134285714286	0.0	0	0
42.68613673469388	0.0	0	0
35.760930612244906	0.0	0	0
28.835724489795922	0.0	0	0
21.91051836734694	0.0	0	0
14.98531224489796	0.0	0	0
8.06010612244898	0.0	0	0
1.1349	0.0	0	0
0.0	0.0	0	0
0.0	0.7995	0	0
0.0	5.678081632653061	0	0
0.0	10.556663265306122	0	0
0.0	15.435244897959183	0	0
0.0	20.313826530612243	0	0
0.0	25.192408163265302	0	0
0.0	30.070989795918365	0	0
0.0	34.94957142857143	0	0
0.0	39.82815306122449	0	0
0.0	44.70673469387755	0	0
0.0	49.58531632653061	0	0
0.0	54.463897959183676	0	0
0.0	59.342479591836735	0	0
0.0	64.22106122448979	0	0
0.0	69.09964285714285	0	0
0.0	73.9782244897959	0	0
0.0	78.85680612244897	0	0
0.0	83.73538775510204	0	0
0.0	88.61396938775509	0	0
0.0	93.49255102040816	0	0
0.0	98.37113265306121	0	0
0.0	103.24971428571428	0	0
0.0	108.12829591836734	0	0
0.0	113.0068775510204	0	0
0.0	117.88545918367346	0	0
0.0	122.76404081632653	0	0
0.0	127.64262244897958	0	0
0.0	132.52120408163265	0	0
0.0	137.3997857142857	0	0
0.0	142.27836734693878	0	0
0.0	147.15694897959182	0	0
0.0	152.03553061224488	0	0
0.0	156.91411224489795	0	0
0.0	161.79269387755102	0	0
0.0	166.67127551020408	0	0
0.0	171.54985714285712	0	0
0.0	176.4284387755102	0	0
0.0	181.30702040816325	0	0
0.0	186.18560204081632	0	0
0.0	191.0641836734694	0	0
0.0	195.94276530612242	0	0
0.0	200.8213469387755	0	0
0.0	205.69992857142856	0	0
0.0	210.57851020408162	0	0
0.0	215.4570918367347	0	0
0.0	220.33567346938776	0	0
0.0	225.2142551020408	0	0
0.0	230.09283673469386	0	0
0.0	234.97141836734693	0	0
[NumSegments] = 116
0	1	-1	0	0	0
1	2	-1	0	0	0
2	3	-1	0	0	0
5	10	-1	0	0	0
6	7	-1	0	0	0
8	7	-1	0	0	0
9	10	-1	0	0	0
10	4	-1	0	0	0
3	4	-1	0	0	0
9	3	-1	0	0	0
11	12	-1	1	0	0
13	12	-1	1	0	0
63	62	-1	2	0	0
62	61	-1	2	0	0
61	60	-1	2	0	0
60	59	-1	2	0	0
59	58	-1	2	0	0
58	57	-1	2	0	0
57	56	-1	2	0	0
56	55	-1	2	0	0
55	54	-1	2	0	0
54	53	-1	2	0	0
53	52	-1	2	0	0
52	51	-1	2	0	0
51	50	-1	2	0	0
50	49	-1	2	0	0
49	48	-1	2	0	0
48	47	-1	2	0	0
47	46	-1	2	0	0
46	45	-1	2	0	0
45	44	-1	2	0	0
44	43	-1	2	0	0
43	42	-1	2	0	0
42	41	-1	2	0	0
41	40	-1	2	0	0
40	39	-1	2	0	0
39	38	-1	2	0	0
38	37	-1	2	0	0
37	36	-1	2	0	0
36	35	-1	2	0	0
35	34	-1	2	0	0
34	33	-1	2	0	0
33	32	-1	2	0	0
32	31	-1	2	0	0
31	30	-1	2	0	0
30	29	-1	2	0	0
29	28	-1	2	0	0
28	27	-1	2	0	0
27	26	-1	2	0	0
26	25	-1	2	0	0
25	24	-1	2	0	0
24	23	-1	2	0	0
23	22	-1	2	0	0
22	21	-1	2	0	0
21	20	-1	2	0	0
20	19	-1	2	0	0
19	18	-1	2	0	0
18	17	-1	2	0	0
17	16	-1	2	0	0
16	15	-1	2	0	0
15	14	-1	2	0	0
14	5	-1	2	0	0
5	6	-1	2	0	0
6	13	-1	2	0	0
63	64	-1	1	0	0
64	65	-1	1	0	0
65	66	-1	1	0	0
66	67	-1	1	0	0
67	68	-1	1	0	0
68	69	-1	1	0	0
69	70	-1	1	0	0
70	71	-1	1	0	0
71	72	-1	1	0	0
72	73	-1	1	0	0
73	74	-1	1	0	0
74	75	-1	1	0	0
75	76	-1	1	0	0
76	77	-1	1	0	0
77	78	-1	1	0	0
78	79	-1	1	0	0
79	0	-1	1	0	0
0	80	-1	1	0	0
80	81	-1	1	0	0
81	82	-1	1	0	0
82	83	-1	1	0	0
83	84	-1	1	0	0
84	85	-1	1	0	0
85	86	-1	1	0	0
86	87	-1	1	0	0
87	88	-1	1	0	0
88	89	-1	1	0	0
89	90	-1	1	0	0
90	91	-1	1	0	0
91	92	-1	1	0	0
92	93	-1	1	0	0
93	94	-1	1	0	0
94	95	-1	1	0	0
95	96	-1	1	0	0
96	97	-1	1	0	0
97	98	-1	1	0	0
98	99	-1	1	0	0
99	100	-1	1	0	0
100	101	-1	1	0	0
101	102	-1	1	0	0
102	103	-1	1	0	0
103	104	-1	1	0	0
104	105	-1	1	0	0
105	106	-1	1	0	0
106	107	-1	1	0	0
107	108	-1	1	0	0
108	109	-1	1	0	0
109	110	-1	1	0	0
110	111	-1	1	0	0
111	112	-1	1	0	0
112	8	-1	1	0	0
8	11	-1	1	0	0
[NumArcSegments] = 0
[NumHoles] = 0
[NumBlockLabels] = 3
0.005	78.205	1	-1	0	0	0	1	0
180.20499999999998	93.905	2	-1	1	0	0	29	0
0.005	799.49	3	-1	0	0	0	1	2
