[Format] = 4.0
[Frequency] = 0
[Precision] = 1e-08
[MinAngle] = 30
[DoSmartMesh] = 1
[Depth] = 1000
[LengthUnits] = millimeters
[ProblemType] = planar
[Coordinates] = cartesian
[ACSolver] = 0
[PrevType] = 0
[PrevSoln] = ""
[Comment] = "Automatically created with eadevices."
[PointProps] = 0
[BdryProps] = 2
  <BeginBdry>
    <BdryName> = "B_parallel"
    <BdryType> = 0
    <A_0> = 0
    <A_1> = 0
    <A_2> = 0
    <Phi> = 0
    <c0> = 0
    <c0i> = 0
    <c1> = 0
    <c1i> = 0
    <Mu_ssd> = 0
    <Sigma_ssd> = 0
    <innerangle> = 0
    <outerangle> = 0
  <EndBdry>
  <BeginBdry>
    <BdryName> = "B_perpendicular"
    <BdryType> = 2
    <A_0> = 0
    <A_1> = 0
    <A_2> = 0
    <Phi> = 0
    <c0> = 0
    <c0i> = 0
    <c1> = 0
    <c1i> = 0
    <Mu_ssd> = 0
    <Sigma_ssd> = 0
    <innerangle> = 0
    <outerangle> = 0
  <EndBdry>
[BlockProps] = 3
  <BeginBlock>
    <BlockName> = "Pure Iron"
    <Mu_x> = 14872
    <Mu_y> = 14872
    <H_c> = 0
    <H_cAngle> = 0
    <J_re> = 0
    <J_im> = 0
    <Sigma> = 10.44
    <d_lam> = 0
    <Phi_h> = 0
    <Phi_hx> = 0
    <Phi_hy> = 0
    <LamType> = 0
    <LamFill> = 1
    <NStrands> = 0
    <WireD> = 0
    <BHPoints> = 21
      0.0	0.0
      0.2271	13.8984
      0.4541	27.7967
      0.6812	42.3974
      0.9083	61.4157
      1.1353	82.3824
      1.3624	144.669
      1.5894	897.76
      1.8124	4581.74
      2.01	17736.2
      2.1332	41339.3
      2.2	68321.8
      2.2548	95685.5
      2.2999	123355.0
      2.3425	151083.0
      2.3788	178954.0
      2.415	206825.0
      2.4513	234696.0
      2.4875	262568.0
      2.5238	290439.0
      2.56	318310.0
  <EndBlock>
  <BeginBlock>
    <BlockName> = "Copper"
    <Mu_x> = 1
    <Mu_y> = 1
    <H_c> = 0
    <H_cAngle> = 0
    <J_re> = 0
    <J_im> = 0
    <Sigma> = 58
    <d_lam> = 0
    <Phi_h> = 0
    <Phi_hx> = 0
    <Phi_hy> = 0
    <LamType> = 0
    <LamFill> = 1
    <NStrands> = 0
    <WireD> = 0
    <BHPoints> = 0
  <EndBlock>
  <BeginBlock>
    <BlockName> = "Air"
    <Mu_x> = 1
    <Mu_y> = 1
    <H_c> = 0
    <H_cAngle> = 0
    <J_re> = 0
    <J_im> = 0
    <Sigma> = 0
    <d_lam> = 0
    <Phi_h> = 0
    <Phi_hx> = 0
    <Phi_hy> = 0
    <LamType> = 0
    <LamFill> = 1
    <NStrands> = 0
    <WireD> = 0
    <BHPoints> = 0
  <EndBlock>
[CircuitProps] = 1
  <BeginCircuit>
    <CircuitName> = Circuit_72210A_0A_1
    <TotalAmps_re> = 72210
    <TotalAmps_im> = 0
    <CircuitType> = 1
  <EndCircuit>
[NumPoints] = 121
256.8	47.6	0	0
269.7	121.8	0	0
408.7	121.8	0	0
408.7	0.0	0	0
1034.4	0.0	0	0
1034.4	747.6	0	0
0.0	747.6	0	0
0.0	47.6	0	0
25.7	47.6	0	0
51.4	47.6	0	0
77.1	47.6	0	0
102.7	47.6	0	0
128.4	47.6	0	0
154.1	47.6	0	0
179.8	47.6	0	0
205.5	47.6	0	0
231.2	47.6	0	0
269.7	52.3	0	0
408.7	52.3	0	0
0.0	972.4	0	0
1344.2	972.4	0	0
1344.2	0.0	0	0
395.05763673469386	0.0	0	0
386.8552734693877	0.0	0	0
378.6529102040816	0.0	0	0
370.4505469387755	0.0	0	0
362.2481836734694	0.0	0	0
354.04582040816325	0.0	0	0
345.8434571428571	0.0	0	0
337.641093877551	0.0	0	0
329.43873061224485	0.0	0	0
321.2363673469388	0.0	0	0
313.03400408163265	0.0	0	0
304.8316408163265	0.0	0	0
296.6292775510204	0.0	0	0
288.42691428571425	0.0	0	0
280.22455102040817	0.0	0	0
272.02218775510204	0.0	0	0
263.8198244897959	0.0	0	0
255.61746122448977	0.0	0	0
247.41509795918367	0.0	0	0
239.21273469387754	0.0	0	0
231.01037142857143	0.0	0	0
222.8080081632653	0.0	0	0
214.60564489795917	0.0	0	0
206.40328163265306	0.0	0	0
198.20091836734693	0.0	0	0
189.9985551020408	0.0	0	0
181.7961918367347	0.0	0	0
173.59382857142856	0.0	0	0
165.39146530612243	0.0	0	0
157.18910204081632	0.0	0	0
148.9867387755102	0.0	0	0
140.7843755102041	0.0	0	0
132.58201224489795	0.0	0	0
124.37964897959183	0.0	0	0
116.17728571428572	0.0	0	0
107.97492244897958	0.0	0	0
99.77255918367347	0.0	0	0
91.57019591836735	0.0	0	0
83.36783265306121	0.0	0	0
75.1654693877551	0.0	0	0
66.96310612244898	0.0	0	0
58.76074285714286	0.0	0	0
50.55837959183673	0.0	0	0
42.35601632653061	0.0	0	0
34.15365306122449	0.0	0	0
25.951289795918367	0.0	0	0
17.748926530612245	0.0	0	0
9.546563265306123	0.0	0	0
1.3442	0.0	0	0
0.0	0.0	0	0
0.0	0.9724	0	0
0.0	6.906024489795918	0	0
0.0	12.839648979591836	0	0
0.0	18.773273469387753	0	0
0.0	24.70689795918367	0	0
0.0	30.64052244897959	0	0
0.0	36.574146938775506	0	0
0.0	42.507771428571424	0	0
0.0	48.44139591836734	0	0
0.0	54.37502040816326	0	0
0.0	60.30864489795918	0	0
0.0	66.24226938775509	0	0
0.0	72.175893877551	0	0
0.0	78.10951836734692	0	0
0.0	84.04314285714284	0	0
0.0	89.97676734693876	0	0
0.0	95.91039183673468	0	0
0.0	101.84401632653059	0	0
0.0	107.77764081632651	0	0
0.0	113.71126530612243	0	0
0.0	119.64488979591835	0	0
0.0	125.57851428571426	0	0
0.0	131.51213877551018	0	0
0.0	137.44576326530608	0	0
0.0	143.37938775510202	0	0
0.0	149.31301224489795	0	0
0.0	155.24663673469385	0	0
0.0	161.18026122448975	0	0
0.0	167.1138857142857	0	0
0.0	173.04751020408162	0	0
0.0	178.98113469387752	0	0
0.0	184.91475918367343	0	0
0.0	190.84838367346936	0	0
0.0	196.7820081632653	0	0
0.0	202.7156326530612	0	0
0.0	208.6492571428571	0	0
0.0	214.58288163265303	0	0
0.0	220.51650612244896	0	0
0.0	226.45013061224486	0	0
0.0	232.38375510204077	0	0
0.0	238.3173795918367	0	0
0.0	244.25100408163263	0	0
0.0	250.18462857142853	0	0
0.0	256.11825306122444	0	0
0.0	262.05187755102037	0	0
0.0	267.9855020408163	0	0
0.0	273.9191265306122	0	0
0.0	279.8527510204081	0	0
0.0	285.78637551020404	0	0
[NumSegments] = 124
0	1	-1	0	0	0
3	18	-1	0	0	0
4	5	-1	0	0	0
6	5	-1	0	0	0
7	8	-1	0	0	0
8	9	-1	0	0	0
9	10	-1	0	0	0
10	11	-1	0	0	0
11	12	-1	0	0	0
12	13	-1	0	0	0
13	14	-1	0	0	0
14	15	-1	0	0	0
15	16	-1	0	0	0
16	0	-1	0	0	0
17	18	-1	0	0	0
18	2	-1	0	0	0
1	2	-1	0	0	0
17	1	-1	0	0	0
19	20	-1	1	0	0
21	20	-1	1	0	0
71	70	-1	2	0	0
70	69	-1	2	0	0
69	68	-1	2	0	0
68	67	-1	2	0	0
67	66	-1	2	0	0
66	65	-1	2	0	0
65	64	-1	2	0	0
64	63	-1	2	0	0
63	62	-1	2	0	0
62	61	-1	2	0	0
61	60	-1	2	0	0
60	59	-1	2	0	0
59	58	-1	2	0	0
58	57	-1	2	0	0
57	56	-1	2	0	0
56	55	-1	2	0	0
55	54	-1	2	0	0
54	53	-1	2	0	0
53	52	-1	2	0	0
52	51	-1	2	0	0
51	50	-1	2	0	0
50	49	-1	2	0	0
49	48	-1	2	0	0
48	47	-1	2	0	0
47	46	-1	2	0	0
46	45	-1	2	0	0
45	44	-1	2	0	0
44	43	-1	2	0	0
43	42	-1	2	0	0
42	41	-1	2	0	0
41	40	-1	2	0	0
40	39	-1	2	0	0
39	38	-1	2	0	0
38	37	-1	2	0	0
37	36	-1	2	0	0
36	35	-1	2	0	0
35	34	-1	2	0	0
34	33	-1	2	0	0
33	32	-1	2	0	0
32	31	-1	2	0	0
31	30	-1	2	0	0
30	29	-1	2	0	0
29	28	-1	2	0	0
28	27	-1	2	0	0
27	26	-1	2	0	0
26	25	-1	2	0	0
25	24	-1	2	0	0
24	23	-1	2	0	0
23	22	-1	2	0	0
22	3	-1	2	0	0
3	4	-1	2	0	0
4	21	-1	2	0	0
71	72	-1	1	0	0
72	73	-1	1	0	0
73	74	-1	1	0	0
74	75	-1	1	0	0
75	76	-1	1	0	0
76	77	-1	1	0	0
77	78	-1	1	0	0
78	79	-1	1	0	0
79	7	-1	1	0	0
7	80	-1	1	0	0
80	81	-1	1	0	0
81	82	-1	1	0	0
82	83	-1	1	0	0
83	84	-1	1	0	0
84	85	-1	1	0	0
85	86	-1	1	0	0
86	87	-1	1	0	0
87	88	-1	1	0	0
88	89	-1	1	0	0
89	90	-1	1	0	0
90	91	-1	1	0	0
91	92	-1	1	0	0
92	93	-1	1	0	0
93	94	-1	1	0	0
94	95	-1	1	0	0
95	96	-1	1	0	0
96	97	-1	1	0	0
97	98	-1	1	0	0
98	99	-1	1	0	0
99	100	-1	1	0	0
100	101	-1	1	0	0
101	102	-1	1	0	0
102	103	-1	1	0	0
103	104	-1	1	0	0
104	105	-1	1	0	0
105	106	-1	1	0	0
106	107	-1	1	0	0
107	108	-1	1	0	0
108	109	-1	1	0	0
109	110	-1	1	0	0
110	111	-1	1	0	0
111	112	-1	1	0	0
112	113	-1	1	0	0
113	114	-1	1	0	0
114	115	-1	1	0	0
115	116	-1	1	0	0
116	117	-1	1	0	0
117	118	-1	1	0	0
118	119	-1	1	0	0
119	120	-1	1	0	0
120	6	-1	1	0	0
6	19	-1	1	0	0
[NumArcSegments] = 0
[NumHoles] = 0
[NumBlockLabels] = 3
256.79	47.605000000000004	1	-1	0	0	0	1	0
269.705	52.305	2	-1	1	0	0	1	0
0.005	972.39	3	-1	0	0	0	1	2
