[Format] = 4.0
[Frequency] = 0
[Precision] = 1e-08
[MinAngle] = 30
[DoSmartMesh] = 1
[Depth] = 1000
[LengthUnits] = millimeters
[ProblemType] = planar
[Coordinates] = cartesian
[ACSolver] = 0
[PrevType] = 0
[PrevSoln] = ""
[Comment] = "Automatically created with eadevices."
[PointProps] = 0
[BdryProps] = 2
  <BeginBdry>
    <BdryName> = "B_parallel"
    <BdryType> = 0
    <A_0> = 0
    <A_1> = 0
    <A_2> = 0
    <Phi> = 0
    <c0> = 0
    <c0i> = 0
    <c1> = 0
    <c1i> = 0
    <Mu_ssd> = 0
    <Sigma_ssd> = 0
    <innerangle> = 0
    <outerangle> = 0
  <EndBdry>
  <BeginBdry>
    <BdryName> = "B_perpendicular"
    <BdryType> = 2
    <A_0> = 0
    <A_1> = 0
    <A_2> = 0
    <Phi> = 0
    <c0> = 0
    <c0i> = 0
    <c1> = 0
    <c1i> = 0
    <Mu_ssd> = 0
    <Sigma_ssd> = 0
    <innerangle> = 0
    <outerangle> = 0
  <EndBdry>
[BlockProps] = 3
  <BeginBlock>
    <BlockName> = "Pure Iron"
    <Mu_x> = 14872
    <Mu_y> = 14872
    <H_c> = 0
    <H_cAngle> = 0
    <J_re> = 0
    <J_im> = 0
    <Sigma> = 10.44
    <d_lam> = 0
    <Phi_h> = 0
    <Phi_hx> = 0
    <Phi_hy> = 0
    <LamType> = 0
    <LamFill> = 1
    <NStrands> = 0
    <WireD> = 0
    <BHPoints> = 21
      0.0	0.0
      0.2271	13.8984
      0.4541	27.7967
      0.6812	42.3974
      0.9083	61.4157
      1.1353	82.3824
      1.3624	144.669
      1.5894	897.76
      1.8124	4581.74
      2.01	17736.2
      2.1332	41339.3
      2.2	68321.8
      2.2548	95685.5
      2.2999	123355.0
      2.3425	151083.0
      2.3788	178954.0
      2.415	206825.0
      2.4513	234696.0
      2.4875	262568.0
      2.5238	290439.0
      2.56	318310.0
  <EndBlock>
  <BeginBlock>
    <BlockName> = "Copper"
    <Mu_x> = 1
    <Mu_y> = 1
    <H_c> = 0
    <H_cAngle> = 0
    <J_re> = 0
    <J_im> = 0
    <Sigma> = 58
    <d_lam> = 0
    <Phi_h> = 0
    <Phi_hx> = 0
    <Phi_hy> = 0
    <LamType> = 0
    <LamFill> = 1
    <NStrands> = 0
    <WireD> = 0
    <BHPoints> = 0
  <EndBlock>
  <BeginBlock>
    <BlockName> = "Air"
    <Mu_x> = 1
    <Mu_y> = 1
    <H_c> = 0
    <H_cAngle> = 0
    <J_re> = 0
    <J_im> = 0
    <Sigma> = 0
    <d_lam> = 0
    <Phi_h> = 0
    <Phi_hx> = 0
    <Phi_hy> = 0
    <LamType> = 0
    <LamFill> = 1
    <NStrands> = 0
    <WireD> = 0
    <BHPoints> = 0
  <EndBlock>
[CircuitProps] = 1
  <BeginCircuit>
    <CircuitName> = Circuit_36585A_0A_1
    <TotalAmps_re> = 36585
    <TotalAmps_im> = 0
    <CircuitType> = 1
  <EndCircuit>
[NumPoints] = 113
0.0	58.2	0	0
120.5	58.2	0	0
318.5	58.2	0	0
321.8	268.9	0	0
560.0	268.9	0	0
560.0	0.0	0	0
743.8	0.0	0	0
743.8	452.7	0	0
0.0	452.7	0	0
321.8	158.2	0	0
560.0	158.2	0	0
0.0	588.9	0	0
967.2	588.9	0	0
967.2	0.0	0	0
284.258106122449	0.0	0	0
278.356212244898	0.0	0	0
272.45431836734696	0.0	0	0
266.55242448979595	0.0	0	0
260.65053061224495	0.0	0	0
254.74863673469392	0.0	0	0
248.84674285714289	0.0	0	0
242.94484897959188	0.0	0	0
237.04295510204085	0.0	0	0
231.14106122448982	0.0	0	0
225.2391673469388	0.0	0	0
219.33727346938778	0.0	0	0
213.43537959183675	0.0	0	0
207.53348571428575	0.0	0	0
201.6315918367347	0.0	0	0
195.7296979591837	0.0	0	0
189.82780408163268	0.0	0	0
183.92591020408165	0.0	0	0
178.02401632653064	0.0	0	0
172.1221224489796	0.0	0	0
166.2202285714286	0.0	0	0
160.31833469387757	0.0	0	0
154.41644081632654	0.0	0	0
148.51454693877554	0.0	0	0
142.6126530612245	0.0	0	0
136.71075918367347	0.0	0	0
130.80886530612247	0.0	0	0
124.90697142857145	0.0	0	0
119.00507755102043	0.0	0	0
113.10318367346942	0.0	0	0
107.20128979591838	0.0	0	0
101.29939591836737	0.0	0	0
95.39750204081635	0.0	0	0
89.49560816326533	0.0	0	0
83.59371428571431	0.0	0	0
77.69182040816328	0.0	0	0
71.78992653061226	0.0	0	0
65.88803265306125	0.0	0	0
59.98613877551021	0.0	0	0
54.08424489795919	0.0	0	0
48.18235102040817	0.0	0	0
42.28045714285715	0.0	0	0
36.37856326530613	0.0	0	0
30.47666938775511	0.0	0	0
24.574775510204084	0.0	0	0
18.672881632653066	0.0	0	0
12.770987755102043	0.0	0	0
6.8690938775510215	0.0	0	0
0.9672000000000001	0.0	0	0
0.0	0.0	0	0
0.0	0.5889	0	0
0.0	4.182391836734694	0	0
0.0	7.775883673469387	0	0
0.0	11.369375510204081	0	0
0.0	14.962867346938776	0	0
0.0	18.556359183673468	0	0
0.0	22.14985102040816	0	0
0.0	25.743342857142856	0	0
0.0	29.33683469387755	0	0
0.0	32.93032653061225	0	0
0.0	36.52381836734694	0	0
0.0	40.11731020408163	0	0
0.0	43.710802040816326	0	0
0.0	47.30429387755102	0	0
0.0	50.89778571428572	0	0
0.0	54.49127755102041	0	0
0.0	58.0847693877551	0	0
0.0	61.678261224489795	0	0
0.0	65.27175306122449	0	0
0.0	68.86524489795917	0	0
0.0	72.45873673469387	0	0
0.0	76.05222857142856	0	0
0.0	79.64572040816326	0	0
0.0	83.23921224489796	0	0
0.0	86.83270408163264	0	0
0.0	90.42619591836734	0	0
0.0	94.01968775510203	0	0
0.0	97.61317959183673	0	0
0.0	101.20667142857143	0	0
0.0	104.80016326530611	0	0
0.0	108.39365510204081	0	0
0.0	111.9871469387755	0	0
0.0	115.5806387755102	0	0
0.0	119.1741306122449	0	0
0.0	122.76762244897958	0	0
0.0	126.36111428571428	0	0
0.0	129.95460612244898	0	0
0.0	133.54809795918365	0	0
0.0	137.14158979591835	0	0
0.0	140.73508163265305	0	0
0.0	144.32857346938775	0	0
0.0	147.92206530612245	0	0
0.0	151.51555714285712	0	0
0.0	155.10904897959182	0	0
0.0	158.70254081632652	0	0
0.0	162.29603265306122	0	0
0.0	165.88952448979592	0	0
0.0	169.4830163265306	0	0
0.0	173.0765081632653	0	0
[NumSegments] = 116
0	1	-1	0	0	0
1	2	-1	0	0	0
2	3	-1	0	0	0
5	10	-1	0	0	0
6	7	-1	0	0	0
8	7	-1	0	0	0
9	10	-1	0	0	0
10	4	-1	0	0	0
3	4	-1	0	0	0
9	3	-1	0	0	0
11	12	-1	1	0	0
13	12	-1	1	0	0
63	62	-1	2	0	0
62	61	-1	2	0	0
61	60	-1	2	0	0
60	59	-1	2	0	0
59	58	-1	2	0	0
58	57	-1	2	0	0
57	56	-1	2	0	0
56	55	-1	2	0	0
55	54	-1	2	0	0
54	53	-1	2	0	0
53	52	-1	2	0	0
52	51	-1	2	0	0
51	50	-1	2	0	0
50	49	-1	2	0	0
49	48	-1	2	0	0
48	47	-1	2	0	0
47	46	-1	2	0	0
46	45	-1	2	0	0
45	44	-1	2	0	0
44	43	-1	2	0	0
43	42	-1	2	0	0
42	41	-1	2	0	0
41	40	-1	2	0	0
40	39	-1	2	0	0
39	38	-1	2	0	0
38	37	-1	2	0	0
37	36	-1	2	0	0
36	35	-1	2	0	0
35	34	-1	2	0	0
34	33	-1	2	0	0
33	32	-1	2	0	0
32	31	-1	2	0	0
31	30	-1	2	0	0
30	29	-1	2	0	0
29	28	-1	2	0	0
28	27	-1	2	0	0
27	26	-1	2	0	0
26	25	-1	2	0	0
25	24	-1	2	0	0
24	23	-1	2	0	0
23	22	-1	2	0	0
22	21	-1	2	0	0
21	20	-1	2	0	0
20	19	-1	2	0	0
19	18	-1	2	0	0
18	17	-1	2	0	0
17	16	-1	2	0	0
16	15	-1	2	0	0
15	14	-1	2	0	0
14	5	-1	2	0	0
5	6	-1	2	0	0
6	13	-1	2	0	0
63	64	-1	1	0	0
64	65	-1	1	0	0
65	66	-1	1	0	0
66	67	-1	1	0	0
67	68	-1	1	0	0
68	69	-1	1	0	0
69	70	-1	1	0	0
70	71	-1	1	0	0
71	72	-1	1	0	0
72	73	-1	1	0	0
73	74	-1	1	0	0
74	75	-1	1	0	0
75	76	-1	1	0	0
76	77	-1	1	0	0
77	78	-1	1	0	0
78	79	-1	1	0	0
79	80	-1	1	0	0
80	0	-1	1	0	0
0	81	-1	1	0	0
81	82	-1	1	0	0
82	83	-1	1	0	0
83	84	-1	1	0	0
84	85	-1	1	0	0
85	86	-1	1	0	0
86	87	-1	1	0	0
87	88	-1	1	0	0
88	89	-1	1	0	0
89	90	-1	1	0	0
90	91	-1	1	0	0
91	92	-1	1	0	0
92	93	-1	1	0	0
93	94	-1	1	0	0
94	95	-1	1	0	0
95	96	-1	1	0	0
96	97	-1	1	0	0
97	98	-1	1	0	0
98	99	-1	1	0	0
99	100	-1	1	0	0
100	101	-1	1	0	0
101	102	-1	1	0	0
102	103	-1	1	0	0
103	104	-1	1	0	0
104	105	-1	1	0	0
105	106	-1	1	0	0
106	107	-1	1	0	0
107	108	-1	1	0	0
108	109	-1	1	0	0
109	110	-1	1	0	0
110	111	-1	1	0	0
111	112	-1	1	0	0
112	8	-1	1	0	0
8	11	-1	1	0	0
[NumArcSegments] = 0
[NumHoles] = 0
[NumBlockLabels] = 3
0.005	58.205000000000005	1	-1	0	0	0	1	0
321.805	158.20499999999998	2	-1	1	0	0	1	0
0.005	588.89	3	-1	0	0	0	1	2
