[Format] = 4.0
[Frequency] = 0
[Precision] = 1e-08
[MinAngle] = 30
[DoSmartMesh] = 1
[Depth] = 1000
[LengthUnits] = millimeters
[ProblemType] = planar
[Coordinates] = cartesian
[ACSolver] = 0
[PrevType] = 0
[PrevSoln] = ""
[Comment] = "Automatically created with eadevices."
[PointProps] = 0
[BdryProps] = 2
  <BeginBdry>
    <BdryName> = "B_parallel"
    <BdryType> = 0
    <A_0> = 0
    <A_1> = 0
    <A_2> = 0
    <Phi> = 0
    <c0> = 0
    <c0i> = 0
    <c1> = 0
    <c1i> = 0
    <Mu_ssd> = 0
    <Sigma_ssd> = 0
    <innerangle> = 0
    <outerangle> = 0
  <EndBdry>
  <BeginBdry>
    <BdryName> = "B_perpendicular"
    <BdryType> = 2
    <A_0> = 0
    <A_1> = 0
    <A_2> = 0
    <Phi> = 0
    <c0> = 0
    <c0i> = 0
    <c1> = 0
    <c1i> = 0
    <Mu_ssd> = 0
    <Sigma_ssd> = 0
    <innerangle> = 0
    <outerangle> = 0
  <EndBdry>
[BlockProps] = 3
  <BeginBlock>
    <BlockName> = "Pure Iron"
    <Mu_x> = 14872
    <Mu_y> = 14872
    <H_c> = 0
    <H_cAngle> = 0
    <J_re> = 0
    <J_im> = 0
    <Sigma> = 10.44
    <d_lam> = 0
    <Phi_h> = 0
    <Phi_hx> = 0
    <Phi_hy> = 0
    <LamType> = 0
    <LamFill> = 1
    <NStrands> = 0
    <WireD> = 0
    <BHPoints> = 21
      0.0	0.0
      0.2271	13.8984
      0.4541	27.7967
      0.6812	42.3974
      0.9083	61.4157
      1.1353	82.3824
      1.3624	144.669
      1.5894	897.76
      1.8124	4581.74
      2.01	17736.2
      2.1332	41339.3
      2.2	68321.8
      2.2548	95685.5
      2.2999	123355.0
      2.3425	151083.0
      2.3788	178954.0
      2.415	206825.0
      2.4513	234696.0
      2.4875	262568.0
      2.5238	290439.0
      2.56	318310.0
  <EndBlock>
  <BeginBlock>
    <BlockName> = "Copper"
    <Mu_x> = 1
    <Mu_y> = 1
    <H_c> = 0
    <H_cAngle> = 0
    <J_re> = 0
    <J_im> = 0
    <Sigma> = 58
    <d_lam> = 0
    <Phi_h> = 0
    <Phi_hx> = 0
    <Phi_hy> = 0
    <LamType> = 0
    <LamFill> = 1
    <NStrands> = 0
    <WireD> = 0
    <BHPoints> = 0
  <EndBlock>
  <BeginBlock>
    <BlockName> = "Air"
    <Mu_x> = 1
    <Mu_y> = 1
    <H_c> = 0
    <H_cAngle> = 0
    <J_re> = 0
    <J_im> = 0
    <Sigma> = 0
    <d_lam> = 0
    <Phi_h> = 0
    <Phi_hx> = 0
    <Phi_hy> = 0
    <LamType> = 0
    <LamFill> = 1
    <NStrands> = 0
    <WireD> = 0
    <BHPoints> = 0
  <EndBlock>
[CircuitProps] = 1
  <BeginCircuit>
    <CircuitName> = Circuit_4772A_0A_1
    <TotalAmps_re> = 4772
    <TotalAmps_im> = 0
    <CircuitType> = 1
  <EndCircuit>
[NumPoints] = 113
0.0	72.3	0	0
117.5	72.3	0	0
206.5	72.3	0	0
215.4	180.5	0	0
402.8	180.5	0	0
402.8	0.0	0	0
745.1	0.0	0	0
745.1	522.8	0	0
0.0	522.8	0	0
215.4	86.8	0	0
402.8	86.8	0	0
0.0	679.9	0	0
968.5	679.9	0	0
968.5	0.0	0	0
284.6401734693878	0.0	0	0
278.7303469387755	0.0	0	0
272.82052040816325	0.0	0	0
266.910693877551	0.0	0	0
261.0008673469388	0.0	0	0
255.0910408163265	0.0	0	0
249.18121428571428	0.0	0	0
243.27138775510204	0.0	0	0
237.36156122448978	0.0	0	0
231.45173469387754	0.0	0	0
225.5419081632653	0.0	0	0
219.63208163265307	0.0	0	0
213.7222551020408	0.0	0	0
207.81242857142857	0.0	0	0
201.90260204081633	0.0	0	0
195.99277551020407	0.0	0	0
190.08294897959183	0.0	0	0
184.1731224489796	0.0	0	0
178.26329591836733	0.0	0	0
172.3534693877551	0.0	0	0
166.44364285714286	0.0	0	0
160.5338163265306	0.0	0	0
154.62398979591836	0.0	0	0
148.71416326530613	0.0	0	0
142.8043367346939	0.0	0	0
136.89451020408163	0.0	0	0
130.9846836734694	0.0	0	0
125.07485714285714	0.0	0	0
119.16503061224489	0.0	0	0
113.25520408163266	0.0	0	0
107.3453775510204	0.0	0	0
101.43555102040817	0.0	0	0
95.52572448979592	0.0	0	0
89.61589795918367	0.0	0	0
83.70607142857143	0.0	0	0
77.79624489795918	0.0	0	0
71.88641836734695	0.0	0	0
65.9765918367347	0.0	0	0
60.06676530612244	0.0	0	0
54.1569387755102	0.0	0	0
48.247112244897956	0.0	0	0
42.33728571428571	0.0	0	0
36.42745918367347	0.0	0	0
30.51763265306122	0.0	0	0
24.607806122448977	0.0	0	0
18.697979591836734	0.0	0	0
12.78815306122449	0.0	0	0
6.878326530612244	0.0	0	0
0.9685	0.0	0	0
0.0	0.0	0	0
0.0	0.6799	0	0
0.0	4.828677551020408	0	0
0.0	8.977455102040816	0	0
0.0	13.126232653061223	0	0
0.0	17.27501020408163	0	0
0.0	21.42378775510204	0	0
0.0	25.572565306122446	0	0
0.0	29.721342857142854	0	0
0.0	33.87012040816326	0	0
0.0	38.018897959183676	0	0
0.0	42.16767551020408	0	0
0.0	46.31645306122449	0	0
0.0	50.465230612244895	0	0
0.0	54.6140081632653	0	0
0.0	58.76278571428571	0	0
0.0	62.911563265306114	0	0
0.0	67.06034081632653	0	0
0.0	71.20911836734693	0	0
0.0	75.35789591836735	0	0
0.0	79.50667346938775	0	0
0.0	83.65545102040817	0	0
0.0	87.80422857142857	0	0
0.0	91.95300612244898	0	0
0.0	96.10178367346938	0	0
0.0	100.25056122448979	0	0
0.0	104.3993387755102	0	0
0.0	108.5481163265306	0	0
0.0	112.69689387755102	0	0
0.0	116.84567142857142	0	0
0.0	120.99444897959184	0	0
0.0	125.14322653061224	0	0
0.0	129.29200408163265	0	0
0.0	133.44078163265306	0	0
0.0	137.58955918367346	0	0
0.0	141.73833673469386	0	0
0.0	145.8871142857143	0	0
0.0	150.0358918367347	0	0
0.0	154.1846693877551	0	0
0.0	158.3334469387755	0	0
0.0	162.48222448979593	0	0
0.0	166.63100204081633	0	0
0.0	170.77977959183673	0	0
0.0	174.92855714285713	0	0
0.0	179.07733469387753	0	0
0.0	183.22611224489796	0	0
0.0	187.37488979591836	0	0
0.0	191.52366734693877	0	0
0.0	195.67244489795917	0	0
0.0	199.82122244897957	0	0
[NumSegments] = 116
0	1	-1	0	0	0
1	2	-1	0	0	0
2	3	-1	0	0	0
5	10	-1	0	0	0
6	7	-1	0	0	0
8	7	-1	0	0	0
9	10	-1	0	0	0
10	4	-1	0	0	0
3	4	-1	0	0	0
9	3	-1	0	0	0
11	12	-1	1	0	0
13	12	-1	1	0	0
63	62	-1	2	0	0
62	61	-1	2	0	0
61	60	-1	2	0	0
60	59	-1	2	0	0
59	58	-1	2	0	0
58	57	-1	2	0	0
57	56	-1	2	0	0
56	55	-1	2	0	0
55	54	-1	2	0	0
54	53	-1	2	0	0
53	52	-1	2	0	0
52	51	-1	2	0	0
51	50	-1	2	0	0
50	49	-1	2	0	0
49	48	-1	2	0	0
48	47	-1	2	0	0
47	46	-1	2	0	0
46	45	-1	2	0	0
45	44	-1	2	0	0
44	43	-1	2	0	0
43	42	-1	2	0	0
42	41	-1	2	0	0
41	40	-1	2	0	0
40	39	-1	2	0	0
39	38	-1	2	0	0
38	37	-1	2	0	0
37	36	-1	2	0	0
36	35	-1	2	0	0
35	34	-1	2	0	0
34	33	-1	2	0	0
33	32	-1	2	0	0
32	31	-1	2	0	0
31	30	-1	2	0	0
30	29	-1	2	0	0
29	28	-1	2	0	0
28	27	-1	2	0	0
27	26	-1	2	0	0
26	25	-1	2	0	0
25	24	-1	2	0	0
24	23	-1	2	0	0
23	22	-1	2	0	0
22	21	-1	2	0	0
21	20	-1	2	0	0
20	19	-1	2	0	0
19	18	-1	2	0	0
18	17	-1	2	0	0
17	16	-1	2	0	0
16	15	-1	2	0	0
15	14	-1	2	0	0
14	5	-1	2	0	0
5	6	-1	2	0	0
6	13	-1	2	0	0
63	64	-1	1	0	0
64	65	-1	1	0	0
65	66	-1	1	0	0
66	67	-1	1	0	0
67	68	-1	1	0	0
68	69	-1	1	0	0
69	70	-1	1	0	0
70	71	-1	1	0	0
71	72	-1	1	0	0
72	73	-1	1	0	0
73	74	-1	1	0	0
74	75	-1	1	0	0
75	76	-1	1	0	0
76	77	-1	1	0	0
77	78	-1	1	0	0
78	79	-1	1	0	0
79	80	-1	1	0	0
80	81	-1	1	0	0
81	0	-1	1	0	0
0	82	-1	1	0	0
82	83	-1	1	0	0
83	84	-1	1	0	0
84	85	-1	1	0	0
85	86	-1	1	0	0
86	87	-1	1	0	0
87	88	-1	1	0	0
88	89	-1	1	0	0
89	90	-1	1	0	0
90	91	-1	1	0	0
91	92	-1	1	0	0
92	93	-1	1	0	0
93	94	-1	1	0	0
94	95	-1	1	0	0
95	96	-1	1	0	0
96	97	-1	1	0	0
97	98	-1	1	0	0
98	99	-1	1	0	0
99	100	-1	1	0	0
100	101	-1	1	0	0
101	102	-1	1	0	0
102	103	-1	1	0	0
103	104	-1	1	0	0
104	105	-1	1	0	0
105	106	-1	1	0	0
106	107	-1	1	0	0
107	108	-1	1	0	0
108	109	-1	1	0	0
109	110	-1	1	0	0
110	111	-1	1	0	0
111	112	-1	1	0	0
112	8	-1	1	0	0
8	11	-1	1	0	0
[NumArcSegments] = 0
[NumHoles] = 0
[NumBlockLabels] = 3
0.005	72.30499999999999	1	-1	0	0	0	1	0
215.405	86.80499999999999	2	-1	1	0	0	25	0
0.005	679.89	3	-1	0	0	0	1	2
